<?xml version="1.0" encoding="UTF-8"?>

<!-- generated on 2026-01-13 15:29:02.507265 by Eclipse SUMO osmWebWizard.py v1.25.0
<configuration>
    <net-file value="/home/hoeman/Sumo/2026-01-13-15-28-54/osm.net.xml.gz"/>
    <additional-files value="/home/hoeman/Sumo/2026-01-13-15-28-54/osm_stops.add.xml,/home/hoeman/Sumo/2026-01-13-15-28-54/osm_pt.rou.xml"/>
    <output-trip-file value="/home/hoeman/Sumo/2026-01-13-15-28-54/osm.pedestrian.trips.xml"/>
    <route-file value="/home/hoeman/Sumo/2026-01-13-15-28-54/osm.pedestrian.rou.xml"/>
    <persontrips value="True"/>
    <persontrip.walk-opposite-factor value="0.8"/>
    <prefix value="ped"/>
    <trip-attributes value="modes=&quot;public&quot;"/>
    <vehicle-class value="pedestrian"/>
    <fringe-factor value="1"/>
    <seed value="45"/>
    <insertion-density value="10.0"/>
    <duarouter-weights.tls-penalty value="20"/>
</configuration>
-->

<routes xmlns:xsi="http://www.w3.org/2001/XMLSchema-instance" xsi:noNamespaceSchemaLocation="http://sumo.dlr.de/xsd/routes_file.xsd">
    <vType id="ped_pedestrian" vClass="pedestrian"/>
    <person id="ped0" depart="0.00" type="ped_pedestrian">
        <personTrip from="1150062811#0" to="1211918073" modes="public"/>
    </person>
    <person id="ped1" depart="20.07" type="ped_pedestrian">
        <personTrip from="-1211918059#0" to="1211918058#9" modes="public"/>
    </person>
    <person id="ped2" depart="40.14" type="ped_pedestrian">
        <personTrip from="-1211928057#1" to="-1211928057#0" modes="public"/>
    </person>
    <person id="ped3" depart="60.21" type="ped_pedestrian">
        <personTrip from="89608602" to="89608607" modes="public"/>
    </person>
    <person id="ped4" depart="80.28" type="ped_pedestrian">
        <personTrip from="1211918057#1" to="1212008676#1" modes="public"/>
    </person>
    <person id="ped5" depart="100.34" type="ped_pedestrian">
        <personTrip from="1212008676#0" to="1150062812#1" modes="public"/>
    </person>
    <person id="ped6" depart="120.41" type="ped_pedestrian">
        <personTrip from="-1150062813" to="443842821#1" modes="public"/>
    </person>
    <person id="ped7" depart="140.48" type="ped_pedestrian">
        <personTrip from="1150062812#0" to="1150062813" modes="public"/>
    </person>
    <person id="ped8" depart="160.55" type="ped_pedestrian">
        <personTrip from="1211988151#4" to="1211918057#3" modes="public"/>
    </person>
    <person id="ped9" depart="180.62" type="ped_pedestrian">
        <personTrip from="1150062811#1" to="1211918061#2" modes="public"/>
    </person>
    <person id="ped10" depart="200.69" type="ped_pedestrian">
        <personTrip from="1212008676#4" to="1211928059#1" modes="public"/>
    </person>
    <person id="ped11" depart="220.76" type="ped_pedestrian">
        <personTrip from="1411364904" to="1211928057#0" modes="public"/>
    </person>
    <person id="ped12" depart="240.83" type="ped_pedestrian">
        <personTrip from="1211918058#6" to="1211988157#1" modes="public"/>
    </person>
    <person id="ped13" depart="260.89" type="ped_pedestrian">
        <personTrip from="-1211918059#1" to="1434864171#1" modes="public"/>
    </person>
    <person id="ped14" depart="280.96" type="ped_pedestrian">
        <personTrip from="1211918058#8" to="1211918058#3" modes="public"/>
    </person>
    <person id="ped15" depart="301.03" type="ped_pedestrian">
        <personTrip from="-954814120#0" to="1211918057#3" modes="public"/>
    </person>
    <person id="ped16" depart="321.10" type="ped_pedestrian">
        <personTrip from="952053681#2" to="1211918058#6" modes="public"/>
    </person>
    <person id="ped17" depart="341.17" type="ped_pedestrian">
        <personTrip from="1211928059#1" to="1434864175#1" modes="public"/>
    </person>
    <person id="ped18" depart="361.24" type="ped_pedestrian">
        <personTrip from="1434864169#1" to="1211988154" modes="public"/>
    </person>
    <person id="ped19" depart="381.31" type="ped_pedestrian">
        <personTrip from="1212008676#0" to="1211918058#1" modes="public"/>
    </person>
    <person id="ped20" depart="401.38" type="ped_pedestrian">
        <personTrip from="877366030#1" to="1211988151#2" modes="public"/>
    </person>
    <person id="ped21" depart="421.44" type="ped_pedestrian">
        <personTrip from="1434864171#1" to="-1211918059#1" modes="public"/>
    </person>
    <person id="ped22" depart="441.51" type="ped_pedestrian">
        <personTrip from="1211988151#0" to="1211918058#5" modes="public"/>
    </person>
    <person id="ped23" depart="461.58" type="ped_pedestrian">
        <personTrip from="-952053681#2" to="1211918058#8" modes="public"/>
    </person>
    <person id="ped24" depart="481.65" type="ped_pedestrian">
        <personTrip from="1211918058#9" to="1211988151#5" modes="public"/>
    </person>
    <person id="ped25" depart="501.72" type="ped_pedestrian">
        <personTrip from="1434864168" to="1212008676#1" modes="public"/>
    </person>
    <person id="ped26" depart="521.79" type="ped_pedestrian">
        <personTrip from="1211918058#4" to="-1150062812#0" modes="public"/>
    </person>
    <person id="ped27" depart="541.86" type="ped_pedestrian">
        <personTrip from="363321486#3" to="-1193997327#4" modes="public"/>
    </person>
    <person id="ped28" depart="561.93" type="ped_pedestrian">
        <personTrip from="1211918061#3" to="1212008676#1" modes="public"/>
    </person>
    <person id="ped29" depart="581.99" type="ped_pedestrian">
        <personTrip from="454609716#1" to="251032657#3" modes="public"/>
    </person>
    <person id="ped30" depart="602.06" type="ped_pedestrian">
        <personTrip from="1211928061" to="-954814120#0" modes="public"/>
    </person>
    <person id="ped31" depart="622.13" type="ped_pedestrian">
        <personTrip from="1211918067" to="-1211988156" modes="public"/>
    </person>
    <person id="ped32" depart="642.20" type="ped_pedestrian">
        <personTrip from="952053680#0" to="-443842821#1" modes="public"/>
    </person>
    <person id="ped33" depart="662.27" type="ped_pedestrian">
        <personTrip from="1211928059#1" to="1212008676#2" modes="public"/>
    </person>
    <person id="ped34" depart="682.34" type="ped_pedestrian">
        <personTrip from="1434864171#1" to="1211918058#9" modes="public"/>
    </person>
    <person id="ped35" depart="702.41" type="ped_pedestrian">
        <personTrip from="1212008676#0" to="-1150062812#1" modes="public"/>
    </person>
    <person id="ped36" depart="722.48" type="ped_pedestrian">
        <personTrip from="-1193997327#2" to="363321486#2" modes="public"/>
    </person>
    <person id="ped37" depart="742.54" type="ped_pedestrian">
        <personTrip from="1211918057#0" to="1211918058#1" modes="public"/>
    </person>
    <person id="ped38" depart="762.61" type="ped_pedestrian">
        <personTrip from="-877366030#1" to="-1211988156" modes="public"/>
    </person>
    <person id="ped39" depart="782.68" type="ped_pedestrian">
        <personTrip from="1434864170#0" to="1211918058#2" modes="public"/>
    </person>
    <person id="ped40" depart="802.75" type="ped_pedestrian">
        <personTrip from="952053680#1" to="1211918061#4" modes="public"/>
    </person>
    <person id="ped41" depart="822.82" type="ped_pedestrian">
        <personTrip from="1211918061#3" to="1211988162" modes="public"/>
    </person>
    <person id="ped42" depart="842.89" type="ped_pedestrian">
        <personTrip from="952053680#1" to="1150062813" modes="public"/>
    </person>
    <person id="ped43" depart="862.96" type="ped_pedestrian">
        <personTrip from="-1150062812#1" to="1211928060#1" modes="public"/>
    </person>
    <person id="ped44" depart="883.03" type="ped_pedestrian">
        <personTrip from="1212008676#3" to="1150062811#2" modes="public"/>
    </person>
    <person id="ped45" depart="903.10" type="ped_pedestrian">
        <personTrip from="1434864170#1" to="-1150062811#0" modes="public"/>
    </person>
    <person id="ped46" depart="923.16" type="ped_pedestrian">
        <personTrip from="1211918058#9" to="952053680#0" modes="public"/>
    </person>
    <person id="ped47" depart="943.23" type="ped_pedestrian">
        <personTrip from="1211988162" to="1211918057#2" modes="public"/>
    </person>
    <person id="ped48" depart="963.30" type="ped_pedestrian">
        <personTrip from="443842821#0" to="1211918057#1" modes="public"/>
    </person>
    <person id="ped49" depart="983.37" type="ped_pedestrian">
        <personTrip from="1150062811#2" to="-952053681#2" modes="public"/>
    </person>
    <person id="ped50" depart="1003.44" type="ped_pedestrian">
        <personTrip from="1150062811#0" to="1434864169#0" modes="public"/>
    </person>
    <person id="ped51" depart="1023.51" type="ped_pedestrian">
        <personTrip from="1211988160" to="1211918057#1" modes="public"/>
    </person>
    <person id="ped52" depart="1043.58" type="ped_pedestrian">
        <personTrip from="-952053681#1" to="443842821#1" modes="public"/>
    </person>
    <person id="ped53" depart="1063.65" type="ped_pedestrian">
        <personTrip from="1211918061#4" to="-954814120#0" modes="public"/>
    </person>
    <person id="ped54" depart="1083.71" type="ped_pedestrian">
        <personTrip from="1211918061#1" to="-952053681#3" modes="public"/>
    </person>
    <person id="ped55" depart="1103.78" type="ped_pedestrian">
        <personTrip from="89608638#3" to="89608607" modes="public"/>
    </person>
    <person id="ped56" depart="1123.85" type="ped_pedestrian">
        <personTrip from="363321486#1" to="1211928057#0" modes="public"/>
    </person>
    <person id="ped57" depart="1143.92" type="ped_pedestrian">
        <personTrip from="1211928059#0" to="-1150062812#0" modes="public"/>
    </person>
    <person id="ped58" depart="1163.99" type="ped_pedestrian">
        <personTrip from="1443052783#2" to="1456031382#0" modes="public"/>
    </person>
    <person id="ped59" depart="1184.06" type="ped_pedestrian">
        <personTrip from="1193997329" to="1211928058#1" modes="public"/>
    </person>
    <person id="ped60" depart="1204.13" type="ped_pedestrian">
        <personTrip from="1211918073" to="1434864175#3" modes="public"/>
    </person>
    <person id="ped61" depart="1224.20" type="ped_pedestrian">
        <personTrip from="1211988151#2" to="-952053681#3" modes="public"/>
    </person>
    <person id="ped62" depart="1244.26" type="ped_pedestrian">
        <personTrip from="443842821#1" to="-877366030#1" modes="public"/>
    </person>
    <person id="ped63" depart="1264.33" type="ped_pedestrian">
        <personTrip from="-877408687" to="1212008676#2" modes="public"/>
    </person>
    <person id="ped64" depart="1284.40" type="ped_pedestrian">
        <personTrip from="1211988160" to="1211918068#1" modes="public"/>
    </person>
    <person id="ped65" depart="1304.47" type="ped_pedestrian">
        <personTrip from="1211918061#1" to="952053681#3" modes="public"/>
    </person>
    <person id="ped66" depart="1324.54" type="ped_pedestrian">
        <personTrip from="1211918058#4" to="-1150062811#0" modes="public"/>
    </person>
    <person id="ped67" depart="1344.61" type="ped_pedestrian">
        <personTrip from="1211918061#3" to="1211928063#1" modes="public"/>
    </person>
    <person id="ped68" depart="1364.68" type="ped_pedestrian">
        <personTrip from="1211918061#1" to="952053680#1" modes="public"/>
    </person>
    <person id="ped69" depart="1384.75" type="ped_pedestrian">
        <personTrip from="952053681#1" to="952053681#0" modes="public"/>
    </person>
    <person id="ped70" depart="1404.81" type="ped_pedestrian">
        <personTrip from="1211918059#0" to="1211918058#8" modes="public"/>
    </person>
    <person id="ped71" depart="1424.88" type="ped_pedestrian">
        <personTrip from="952053680#1" to="-952053681#1" modes="public"/>
    </person>
    <person id="ped72" depart="1444.95" type="ped_pedestrian">
        <personTrip from="1434864176#0" to="1434864170#0" modes="public"/>
    </person>
    <person id="ped73" depart="1465.02" type="ped_pedestrian">
        <personTrip from="1211918057#1" to="952053680#0" modes="public"/>
    </person>
    <person id="ped74" depart="1485.09" type="ped_pedestrian">
        <personTrip from="-443842821#0" to="-443842821#0" modes="public"/>
    </person>
    <person id="ped75" depart="1505.16" type="ped_pedestrian">
        <personTrip from="1212008676#4" to="1448147674" modes="public"/>
    </person>
    <person id="ped76" depart="1525.23" type="ped_pedestrian">
        <personTrip from="1211918067" to="1211918058#5" modes="public"/>
    </person>
    <person id="ped77" depart="1545.30" type="ped_pedestrian">
        <personTrip from="1150062811#0" to="-1150062811#2" modes="public"/>
    </person>
    <person id="ped78" depart="1565.36" type="ped_pedestrian">
        <personTrip from="-877408687" to="1211988154" modes="public"/>
    </person>
    <person id="ped79" depart="1585.43" type="ped_pedestrian">
        <personTrip from="1211928058#0" to="1211928057#1" modes="public"/>
    </person>
    <person id="ped80" depart="1605.50" type="ped_pedestrian">
        <personTrip from="1211928063#1" to="1211988151#4" modes="public"/>
    </person>
    <person id="ped81" depart="1625.57" type="ped_pedestrian">
        <personTrip from="443842821#1" to="952053681#3" modes="public"/>
    </person>
    <person id="ped82" depart="1645.64" type="ped_pedestrian">
        <personTrip from="-952053680#0" to="877366030#0" modes="public"/>
    </person>
    <person id="ped83" depart="1665.71" type="ped_pedestrian">
        <personTrip from="1212008676#2" to="877366030#0" modes="public"/>
    </person>
    <person id="ped84" depart="1685.78" type="ped_pedestrian">
        <personTrip from="-1193997327#3" to="363321486#2" modes="public"/>
    </person>
    <person id="ped85" depart="1705.85" type="ped_pedestrian">
        <personTrip from="443842821#0" to="-1150062812#0" modes="public"/>
    </person>
    <person id="ped86" depart="1725.92" type="ped_pedestrian">
        <personTrip from="1434864170#1" to="1434864169#0" modes="public"/>
    </person>
    <person id="ped87" depart="1745.98" type="ped_pedestrian">
        <personTrip from="1211928060#1" to="1434864168" modes="public"/>
    </person>
    <person id="ped88" depart="1766.05" type="ped_pedestrian">
        <personTrip from="952053680#0" to="1211988151#0" modes="public"/>
    </person>
    <person id="ped89" depart="1786.12" type="ped_pedestrian">
        <personTrip from="443842821#0" to="1211918072#1" modes="public"/>
    </person>
    <person id="ped90" depart="1806.19" type="ped_pedestrian">
        <personTrip from="1434864170#0" to="-877366030#1" modes="public"/>
    </person>
    <person id="ped91" depart="1826.26" type="ped_pedestrian">
        <personTrip from="1434864169#0" to="1211928061" modes="public"/>
    </person>
    <person id="ped92" depart="1846.33" type="ped_pedestrian">
        <personTrip from="251032657#0" to="1211928057#0" modes="public"/>
    </person>
    <person id="ped93" depart="1866.40" type="ped_pedestrian">
        <personTrip from="1211918061#4" to="1211918061#3" modes="public"/>
    </person>
    <person id="ped94" depart="1886.47" type="ped_pedestrian">
        <personTrip from="-1193997327#0" to="363321486#1" modes="public"/>
    </person>
    <person id="ped95" depart="1906.53" type="ped_pedestrian">
        <personTrip from="1211988158#1" to="1434864175#2" modes="public"/>
    </person>
    <person id="ped96" depart="1926.60" type="ped_pedestrian">
        <personTrip from="952053681#0" to="-1150062812#0" modes="public"/>
    </person>
    <person id="ped97" depart="1946.67" type="ped_pedestrian">
        <personTrip from="952053680#1" to="1211988151#4" modes="public"/>
    </person>
    <person id="ped98" depart="1966.74" type="ped_pedestrian">
        <personTrip from="1150062812#1" to="-952053681#3" modes="public"/>
    </person>
    <person id="ped99" depart="1986.81" type="ped_pedestrian">
        <personTrip from="1150062811#0" to="-877366030#1" modes="public"/>
    </person>
    <person id="ped100" depart="2006.88" type="ped_pedestrian">
        <personTrip from="1211918061#4" to="-1150062811#0" modes="public"/>
    </person>
    <person id="ped101" depart="2026.95" type="ped_pedestrian">
        <personTrip from="952053681#0" to="-877366030#0" modes="public"/>
    </person>
    <person id="ped102" depart="2047.02" type="ped_pedestrian">
        <personTrip from="1434864175#1" to="1211918058#7" modes="public"/>
    </person>
    <person id="ped103" depart="2067.08" type="ped_pedestrian">
        <personTrip from="1211918065#1" to="1211918059#0" modes="public"/>
    </person>
    <person id="ped104" depart="2087.15" type="ped_pedestrian">
        <personTrip from="1211918057#0" to="1211988162" modes="public"/>
    </person>
    <person id="ped105" depart="2107.22" type="ped_pedestrian">
        <personTrip from="1212008676#0" to="954814120#0" modes="public"/>
    </person>
    <person id="ped106" depart="2127.29" type="ped_pedestrian">
        <personTrip from="952053681#1" to="-952053681#2" modes="public"/>
    </person>
    <person id="ped107" depart="2147.36" type="ped_pedestrian">
        <personTrip from="1211918058#9" to="1211988157#1" modes="public"/>
    </person>
    <person id="ped108" depart="2167.43" type="ped_pedestrian">
        <personTrip from="1211918058#3" to="1150062811#2" modes="public"/>
    </person>
    <person id="ped109" depart="2187.50" type="ped_pedestrian">
        <personTrip from="1448147674" to="-1211988156" modes="public"/>
    </person>
    <person id="ped110" depart="2207.57" type="ped_pedestrian">
        <personTrip from="952053680#1" to="-1150062812#0" modes="public"/>
    </person>
    <person id="ped111" depart="2227.63" type="ped_pedestrian">
        <personTrip from="-1150062812#1" to="952053681#1" modes="public"/>
    </person>
    <person id="ped112" depart="2247.70" type="ped_pedestrian">
        <personTrip from="1211988151#3" to="1211918057#2" modes="public"/>
    </person>
    <person id="ped113" depart="2267.77" type="ped_pedestrian">
        <personTrip from="-952053681#0" to="1211988158#1" modes="public"/>
    </person>
    <person id="ped114" depart="2287.84" type="ped_pedestrian">
        <personTrip from="1211928063#1" to="1211918067" modes="public"/>
    </person>
    <person id="ped115" depart="2307.91" type="ped_pedestrian">
        <personTrip from="443842821#1" to="1211918068#1" modes="public"/>
    </person>
    <person id="ped116" depart="2327.98" type="ped_pedestrian">
        <personTrip from="1434864170#1" to="1212008676#0" modes="public"/>
    </person>
    <person id="ped117" depart="2348.05" type="ped_pedestrian">
        <personTrip from="1211918073" to="1211918061#2" modes="public"/>
    </person>
    <person id="ped118" depart="2368.12" type="ped_pedestrian">
        <personTrip from="-1211918059#1" to="-952053681#1" modes="public"/>
    </person>
    <person id="ped119" depart="2388.18" type="ped_pedestrian">
        <personTrip from="-952053681#1" to="1211928059#1" modes="public"/>
    </person>
    <person id="ped120" depart="2408.25" type="ped_pedestrian">
        <personTrip from="-443842821#0" to="1211918061#4" modes="public"/>
    </person>
    <person id="ped121" depart="2428.32" type="ped_pedestrian">
        <personTrip from="1211918058#2" to="1211918058#8" modes="public"/>
    </person>
    <person id="ped122" depart="2448.39" type="ped_pedestrian">
        <personTrip from="1211988151#3" to="-1211988156" modes="public"/>
    </person>
    <person id="ped123" depart="2468.46" type="ped_pedestrian">
        <personTrip from="1150062811#0" to="1211918057#2" modes="public"/>
    </person>
    <person id="ped124" depart="2488.53" type="ped_pedestrian">
        <personTrip from="251032657#2" to="1211928057#0" modes="public"/>
    </person>
    <person id="ped125" depart="2508.60" type="ped_pedestrian">
        <personTrip from="1434864175#0" to="1211918057#1" modes="public"/>
    </person>
    <person id="ped126" depart="2528.67" type="ped_pedestrian">
        <personTrip from="1434864176#0" to="1211918062#1" modes="public"/>
    </person>
    <person id="ped127" depart="2548.74" type="ped_pedestrian">
        <personTrip from="1211928059#2" to="-1211918059#0" modes="public"/>
    </person>
    <person id="ped128" depart="2568.80" type="ped_pedestrian">
        <personTrip from="954814120#0" to="1211918059#1" modes="public"/>
    </person>
    <person id="ped129" depart="2588.87" type="ped_pedestrian">
        <personTrip from="1211918062#1" to="1211918067" modes="public"/>
    </person>
    <person id="ped130" depart="2608.94" type="ped_pedestrian">
        <personTrip from="1434864168" to="1211928061" modes="public"/>
    </person>
    <person id="ped131" depart="2629.01" type="ped_pedestrian">
        <personTrip from="1193997327#1" to="-1193997328#2" modes="public"/>
    </person>
    <person id="ped132" depart="2649.08" type="ped_pedestrian">
        <personTrip from="-1193997327#0" to="363321486#3" modes="public"/>
    </person>
    <person id="ped133" depart="2669.15" type="ped_pedestrian">
        <personTrip from="-877366030#1" to="1211988158#1" modes="public"/>
    </person>
    <person id="ped134" depart="2689.22" type="ped_pedestrian">
        <personTrip from="952053681#1" to="1448147674" modes="public"/>
    </person>
    <person id="ped135" depart="2709.29" type="ped_pedestrian">
        <personTrip from="1211988156" to="-954814120#0" modes="public"/>
    </person>
    <person id="ped136" depart="2729.35" type="ped_pedestrian">
        <personTrip from="1434864175#0" to="1211918061#0" modes="public"/>
    </person>
    <person id="ped137" depart="2749.42" type="ped_pedestrian">
        <personTrip from="1211918061#1" to="1434864175#0" modes="public"/>
    </person>
    <person id="ped138" depart="2769.49" type="ped_pedestrian">
        <personTrip from="1211988151#4" to="1212008676#4" modes="public"/>
    </person>
    <person id="ped139" depart="2789.56" type="ped_pedestrian">
        <personTrip from="1211918058#9" to="1211918058#4" modes="public"/>
    </person>
    <person id="ped140" depart="2809.63" type="ped_pedestrian">
        <personTrip from="877366030#0" to="1211918058#9" modes="public"/>
    </person>
    <person id="ped141" depart="2829.70" type="ped_pedestrian">
        <personTrip from="-877366030#1" to="443842821#0" modes="public"/>
    </person>
    <person id="ped142" depart="2849.77" type="ped_pedestrian">
        <personTrip from="1211928063#1" to="952053681#0" modes="public"/>
    </person>
    <person id="ped143" depart="2869.84" type="ped_pedestrian">
        <personTrip from="1211928059#0" to="1211918057#3" modes="public"/>
    </person>
    <person id="ped144" depart="2889.90" type="ped_pedestrian">
        <personTrip from="1211988158#1" to="-1150062812#1" modes="public"/>
    </person>
    <person id="ped145" depart="2909.97" type="ped_pedestrian">
        <personTrip from="251032657#3" to="-1193997328#2" modes="public"/>
    </person>
    <person id="ped146" depart="2930.04" type="ped_pedestrian">
        <personTrip from="1211918061#3" to="1211988151#0" modes="public"/>
    </person>
    <person id="ped147" depart="2950.11" type="ped_pedestrian">
        <personTrip from="1434864169#1" to="1434864176#1" modes="public"/>
    </person>
    <person id="ped148" depart="2970.18" type="ped_pedestrian">
        <personTrip from="1211928061" to="1150062811#1" modes="public"/>
    </person>
    <person id="ped149" depart="2990.25" type="ped_pedestrian">
        <personTrip from="1211918067" to="1212008676#1" modes="public"/>
    </person>
    <person id="ped150" depart="3010.32" type="ped_pedestrian">
        <personTrip from="1212008676#1" to="877366030#1" modes="public"/>
    </person>
    <person id="ped151" depart="3030.39" type="ped_pedestrian">
        <personTrip from="1411364904" to="1193997328#0" modes="public"/>
    </person>
    <person id="ped152" depart="3050.45" type="ped_pedestrian">
        <personTrip from="-952053680#0" to="-1211988156" modes="public"/>
    </person>
    <person id="ped153" depart="3070.52" type="ped_pedestrian">
        <personTrip from="1211918063" to="1211988154" modes="public"/>
    </person>
    <person id="ped154" depart="3090.59" type="ped_pedestrian">
        <personTrip from="1211918063" to="1211918061#0" modes="public"/>
    </person>
    <person id="ped155" depart="3110.66" type="ped_pedestrian">
        <personTrip from="1211918058#1" to="-877366030#0" modes="public"/>
    </person>
    <person id="ped156" depart="3130.73" type="ped_pedestrian">
        <personTrip from="1211918059#0" to="1211918057#3" modes="public"/>
    </person>
    <person id="ped157" depart="3150.80" type="ped_pedestrian">
        <personTrip from="-1150062811#0" to="1211928059#1" modes="public"/>
    </person>
    <person id="ped158" depart="3170.87" type="ped_pedestrian">
        <personTrip from="1150062812#0" to="1211918069" modes="public"/>
    </person>
    <person id="ped159" depart="3190.94" type="ped_pedestrian">
        <personTrip from="1150062813" to="1211928059#1" modes="public"/>
    </person>
    <person id="ped160" depart="3211.00" type="ped_pedestrian">
        <personTrip from="1434864170#1" to="-1211918059#0" modes="public"/>
    </person>
    <person id="ped161" depart="3231.07" type="ped_pedestrian">
        <personTrip from="363321486#1" to="1193997328#1" modes="public"/>
    </person>
    <person id="ped162" depart="3251.14" type="ped_pedestrian">
        <personTrip from="1211928061" to="1434864175#0" modes="public"/>
    </person>
    <person id="ped163" depart="3271.21" type="ped_pedestrian">
        <personTrip from="1211988156" to="-952053681#1" modes="public"/>
    </person>
    <person id="ped164" depart="3291.28" type="ped_pedestrian">
        <personTrip from="-1150062811#0" to="1434864170#0" modes="public"/>
    </person>
    <person id="ped165" depart="3311.35" type="ped_pedestrian">
        <personTrip from="1211918061#1" to="1434864169#0" modes="public"/>
    </person>
    <person id="ped166" depart="3331.42" type="ped_pedestrian">
        <personTrip from="-952053681#1" to="1211928059#0" modes="public"/>
    </person>
    <person id="ped167" depart="3351.49" type="ped_pedestrian">
        <personTrip from="-954814120#0" to="877366030#0" modes="public"/>
    </person>
    <person id="ped168" depart="3371.56" type="ped_pedestrian">
        <personTrip from="1211918058#1" to="1211988160" modes="public"/>
    </person>
    <person id="ped169" depart="3391.62" type="ped_pedestrian">
        <personTrip from="-1211928058#1" to="363321486#2" modes="public"/>
    </person>
    <person id="ped170" depart="3411.69" type="ped_pedestrian">
        <personTrip from="-1150062811#2" to="-952053680#1" modes="public"/>
    </person>
    <person id="ped171" depart="3431.76" type="ped_pedestrian">
        <personTrip from="-1193997329" to="1211928057#1" modes="public"/>
    </person>
    <person id="ped172" depart="3451.83" type="ped_pedestrian">
        <personTrip from="-1193997327#4" to="1193997328#2" modes="public"/>
    </person>
    <person id="ped173" depart="3471.90" type="ped_pedestrian">
        <personTrip from="-1211988156" to="443842821#0" modes="public"/>
    </person>
    <person id="ped174" depart="3491.97" type="ped_pedestrian">
        <personTrip from="1211928059#0" to="-1211988156" modes="public"/>
    </person>
    <person id="ped175" depart="3512.04" type="ped_pedestrian">
        <personTrip from="1150062812#0" to="-877366030#1" modes="public"/>
    </person>
    <person id="ped176" depart="3532.11" type="ped_pedestrian">
        <personTrip from="454609716#0" to="1211928057#0" modes="public"/>
    </person>
    <person id="ped177" depart="3552.17" type="ped_pedestrian">
        <personTrip from="-1193997327#4" to="1193997327#3" modes="public"/>
    </person>
    <person id="ped178" depart="3572.24" type="ped_pedestrian">
        <personTrip from="-1193997327#4" to="1193997327#1" modes="public"/>
    </person>
    <person id="ped179" depart="3592.31" type="ped_pedestrian">
        <personTrip from="-1211988156" to="1211928059#1" modes="public"/>
    </person>
</routes>
