<?xml version="1.0" encoding="UTF-8"?>

<!-- generated on 2026-01-13 15:29:02.690624 by Eclipse SUMO osmWebWizard.py v1.25.0
<configuration>
    <net-file value="/home/hoeman/Sumo/2026-01-13-15-28-54/osm.net.xml.gz"/>
    <additional-files value="/home/hoeman/Sumo/2026-01-13-15-28-54/osm_stops.add.xml,/home/hoeman/Sumo/2026-01-13-15-28-54/osm_pt.rou.xml"/>
    <output-trip-file value="/home/hoeman/Sumo/2026-01-13-15-28-54/osm.pedestrian.trips.xml"/>
    <route-file value="/home/hoeman/Sumo/2026-01-13-15-28-54/osm.pedestrian.rou.xml"/>
    <persontrips value="True"/>
    <persontrip.walk-opposite-factor value="0.8"/>
    <prefix value="ped"/>
    <trip-attributes value="modes=&quot;public&quot;"/>
    <vehicle-class value="pedestrian"/>
    <fringe-factor value="1"/>
    <seed value="45"/>
    <insertion-density value="10.0"/>
    <duarouter-weights.tls-penalty value="20"/>
</configuration>
-->

<!-- generated on 2026-01-13T15:29:02.667838+07:00 by Eclipse SUMO duarouter v1_25_0+0904-59bbc76848e
<duarouterConfiguration xmlns:xsi="http://www.w3.org/2001/XMLSchema-instance" xsi:noNamespaceSchemaLocation="http://sumo.dlr.de/xsd/duarouterConfiguration.xsd">

    <input>
        <net-file value="/home/hoeman/Sumo/2026-01-13-15-28-54/osm.net.xml.gz"/>
        <additional-files value="/home/hoeman/Sumo/2026-01-13-15-28-54/osm_stops.add.xml,/home/hoeman/Sumo/2026-01-13-15-28-54/osm_pt.rou.xml"/>
        <route-files value="/home/hoeman/Sumo/2026-01-13-15-28-54/osm.pedestrian.trips.xml"/>
    </input>

    <output>
        <output-file value="/home/hoeman/Sumo/2026-01-13-15-28-54/osm.pedestrian.rou.xml"/>
        <alternatives-output value="NUL"/>
    </output>

    <processing>
        <weights.tls-penalty value="20"/>
        <persontrip.walk-opposite-factor value="0.8"/>
    </processing>

    <time>
        <begin value="0.0"/>
        <end value="3600.0"/>
    </time>

    <report>
        <no-warnings value="true"/>
        <ignore-errors value="true"/>
        <no-step-log value="true"/>
    </report>

</duarouterConfiguration>
-->

<routes xmlns:xsi="http://www.w3.org/2001/XMLSchema-instance" xsi:noNamespaceSchemaLocation="http://sumo.dlr.de/xsd/routes_file.xsd">
    <vType id="ped_pedestrian" vClass="pedestrian"/>
    <person id="ped0" type="ped_pedestrian" depart="0.00">
        <walk edges="1150062811#0 877366030#0 1211988151#4 1211988154 1211988152#1 1211918058#9 1211918073"/>
    </person>
    <person id="ped1" type="ped_pedestrian" depart="20.07">
        <walk edges="-1211918059#0 1211918058#1 1211918058#9"/>
    </person>
    <person id="ped2" type="ped_pedestrian" depart="40.14">
        <walk edges="-1211928057#1 -1211928057#0"/>
    </person>
    <person id="ped3" type="ped_pedestrian" depart="60.21">
        <walk edges="89608602 89608638#1 89608607"/>
    </person>
    <person id="ped4" type="ped_pedestrian" depart="80.28">
        <walk edges="1211918057#1 1434864170#0 1434864170#1 1212008676#3 1212008676#2 1212008676#1"/>
    </person>
    <person id="ped5" type="ped_pedestrian" depart="100.34">
        <walk edges="1212008676#0 952053681#1 -952053681#3 952053680#0 1212008676#2 1212008676#3 1434864170#1 1434864170#0 1211918057#0 1211918072#1 1211918073 1211918058#9 1211988152#1 1211988154 1211988151#4 -877366030#0 1150062811#0 1150062813 1150062812#1"/>
    </person>
    <person id="ped6" type="ped_pedestrian" depart="120.41">
        <walk edges="-1150062813 1150062811#1 1150062811#2 443842821#1"/>
    </person>
    <person id="ped7" type="ped_pedestrian" depart="140.48">
        <walk edges="1150062812#0 -1150062811#1 1150062813"/>
    </person>
    <person id="ped8" type="ped_pedestrian" depart="160.55">
        <walk edges="1211988151#4 1211988154 1211988152#1 1211918058#9 1211918073 1211918072#1 1211918057#3"/>
    </person>
    <person id="ped9" type="ped_pedestrian" depart="180.62">
        <walk edges="1150062811#1 -1150062811#0 877366030#0 1211988151#4 1211988154 1211988152#1 1211918058#9 1211918058#1 1211918058#2 1211918063 1211918062#1 1211918061#2"/>
    </person>
    <person id="ped10" type="ped_pedestrian" depart="200.69">
        <walk edges="1212008676#4 1434864170#1 1434864170#0 1211918057#0 1211918072#1 1211918073 1211918058#1 1211918058#2 1211918058#3 1211918058#4 1211928064 1211928063#1 1211928059#1"/>
    </person>
    <person id="ped11" type="ped_pedestrian" depart="220.76">
        <walk edges="1411364904 454609716#1 454609716#0 251032657#2 251032657#1 1211928057#0"/>
    </person>
    <person id="ped12" type="ped_pedestrian" depart="240.83">
        <walk edges="1211918058#6 1211918058#7 1211988157#1"/>
    </person>
    <person id="ped13" type="ped_pedestrian" depart="260.89">
        <walk edges="-1211918059#1 1211918058#1 1211918073 1211918072#1 1211918057#0 1434864170#0 1434864170#1 1212008676#4 1434864171#1"/>
    </person>
    <person id="ped14" type="ped_pedestrian" depart="280.96">
        <walk edges="1211918058#8 1211918058#7 1211918058#6 1211918058#5 1211918058#4 1211918058#3"/>
    </person>
    <person id="ped15" type="ped_pedestrian" depart="301.03">
        <walk edges="-954814120#0 1211988151#3 1211988154 1211988152#1 1211918058#9 1211918073 1211918072#1 1211918057#3"/>
    </person>
    <person id="ped16" type="ped_pedestrian" depart="321.10">
        <walk edges="952053681#2 -952053681#3 952053680#0 1212008676#2 1212008676#3 1434864170#1 1434864170#0 1211918057#0 1211918072#1 1211918073 1211918058#9 1211918058#8 1211918058#7 1211918058#6"/>
    </person>
    <person id="ped17" type="ped_pedestrian" depart="341.17">
        <walk edges="1211928059#1 1211928063#1 1211928064 1211918058#4 1211918067 1211918065#1 1211918061#1 1211918061#2 1211918061#3 1434864176#1 1434864176#0 1434864175#1"/>
    </person>
    <person id="ped18" type="ped_pedestrian" depart="361.24">
        <walk edges="1434864169#1 1211918057#1 1211918057#0 1211918072#1 1211918073 1211918058#9 1211988152#1 1211988154"/>
    </person>
    <person id="ped19" type="ped_pedestrian" depart="381.31">
        <walk edges="1212008676#0 952053681#1 -952053681#3 952053680#0 1212008676#2 1212008676#3 1434864170#1 1434864170#0 1211918057#0 1211918072#1 1211918073 1211918058#1"/>
    </person>
    <person id="ped20" type="ped_pedestrian" depart="401.38">
        <walk edges="877366030#1 1211988151#4 1211988151#3 1211988151#2"/>
    </person>
    <person id="ped21" type="ped_pedestrian" depart="421.44">
        <walk edges="1434864171#1 1212008676#4 1434864170#1 1434864170#0 1211918057#0 1211918072#1 1211918073 1211918058#1 -1211918059#1"/>
    </person>
    <person id="ped22" type="ped_pedestrian" depart="441.51">
        <walk edges="1211988151#0 1211988162 1211988158#1 1211918058#6 1211918058#5"/>
    </person>
    <person id="ped23" type="ped_pedestrian" depart="461.58">
        <walk edges="-952053681#2 952053680#0 1212008676#2 1212008676#3 1434864170#1 1434864170#0 1211918057#0 1211918072#1 1211918073 1211918058#9 1211918058#8"/>
    </person>
    <person id="ped24" type="ped_pedestrian" depart="481.65">
        <walk edges="1211918058#9 1211988152#1 1211988154 1211988151#4 1211988151#5"/>
    </person>
    <person id="ped25" type="ped_pedestrian" depart="501.72">
        <walk edges="1434864168 1434864169#0 1434864169#1 1211918057#1 1434864170#0 1434864170#1 1212008676#3 1212008676#2 1212008676#1"/>
    </person>
    <person id="ped26" type="ped_pedestrian" depart="521.79">
        <walk edges="1211918058#4 1211918058#3 1211918058#2 1211918058#1 1211918058#9 1211988152#1 1211988154 1211988151#4 -877366030#0 1150062811#0 1150062813 -1150062812#0"/>
    </person>
    <person id="ped27" type="ped_pedestrian" depart="541.86">
        <walk edges="363321486#3 454609716#0 251032657#2 1193997327#1 1193997327#3 -1193997327#4"/>
    </person>
    <person id="ped28" type="ped_pedestrian" depart="561.93">
        <walk edges="1211918061#3 1211918068#1 1211918069 1211918057#2 1211918057#1 1434864170#0 1434864170#1 1212008676#3 1212008676#2 1212008676#1"/>
    </person>
    <person id="ped29" type="ped_pedestrian" depart="581.99">
        <walk edges="454609716#1 454609716#0 251032657#3"/>
    </person>
    <person id="ped30" type="ped_pedestrian" depart="602.06">
        <walk edges="1211928061 1211918058#6 1211918058#7 1211988157#1 1211988160 1211988151#2 -954814120#0"/>
    </person>
    <person id="ped31" type="ped_pedestrian" depart="622.13">
        <walk edges="1211918067 1211918058#4 1211918058#5 1211918058#6 1211918058#7 1211988157#1 1211988160 1211988151#2 -954814120#0 -1211988156"/>
    </person>
    <person id="ped32" type="ped_pedestrian" depart="642.20">
        <walk edges="952053680#0 1212008676#2 1212008676#3 1434864170#1 1434864170#0 1211918057#0 1211918072#1 1211918073 1211918058#9 1211988152#1 1211988154 1211988151#4 -877366030#0 1150062811#0 1150062811#1 1150062811#2 -443842821#1"/>
    </person>
    <person id="ped33" type="ped_pedestrian" depart="662.27">
        <walk edges="1211928059#1 1211928060#1 1211928061 1211918058#6 1211918058#7 1211918058#8 1211918058#9 1211918073 1211918072#1 1211918057#0 1434864170#0 1434864170#1 1212008676#3 1212008676#2"/>
    </person>
    <person id="ped34" type="ped_pedestrian" depart="682.34">
        <walk edges="1434864171#1 1212008676#4 1434864170#1 1434864170#0 1211918057#0 1211918072#1 1211918073 1211918058#9"/>
    </person>
    <person id="ped35" type="ped_pedestrian" depart="702.41">
        <walk edges="1212008676#0 952053681#1 -952053681#3 952053680#0 1212008676#2 1212008676#3 1434864170#1 1434864170#0 1211918057#0 1211918072#1 1211918073 1211918058#9 1211988152#1 1211988154 1211988151#4 -877366030#0 1150062811#0 1150062813 -1150062812#1"/>
    </person>
    <person id="ped36" type="ped_pedestrian" depart="722.48">
        <walk edges="-1193997327#2 251032657#2 454609716#0 363321486#2"/>
    </person>
    <person id="ped37" type="ped_pedestrian" depart="742.54">
        <walk edges="1211918057#0 1211918072#1 1211918073 1211918058#1"/>
    </person>
    <person id="ped38" type="ped_pedestrian" depart="762.61">
        <walk edges="-877366030#1 -1211988156"/>
    </person>
    <person id="ped39" type="ped_pedestrian" depart="782.68">
        <walk edges="1434864170#0 1211918057#0 1211918072#1 1211918073 1211918058#1 1211918058#2"/>
    </person>
    <person id="ped40" type="ped_pedestrian" depart="802.75">
        <walk edges="952053680#1 1212008676#2 1212008676#3 1434864170#1 1434864170#0 1211918057#1 1211918057#2 1211918069 1211918068#1 1211918061#3 1211918061#4"/>
    </person>
    <person id="ped41" type="ped_pedestrian" depart="822.82">
        <walk edges="1211918061#3 1211918061#2 1211918061#1 1211918065#1 1211918067 1211918058#4 1211918058#5 1211918058#6 1211988158#1 1211988162"/>
    </person>
    <person id="ped42" type="ped_pedestrian" depart="842.89">
        <walk edges="952053680#1 1212008676#2 1212008676#3 1434864170#1 1434864170#0 1211918057#0 1211918072#1 1211918073 1211918058#9 1211988152#1 1211988154 1211988151#4 -877366030#0 1150062811#0 1150062813"/>
    </person>
    <person id="ped43" type="ped_pedestrian" depart="862.96">
        <walk edges="-1150062812#1 -1150062813 -1150062811#0 877366030#0 1211988151#4 1211988151#3 1211988151#2 1211988160 1211988157#1 1211918058#7 1211918058#6 1211928061 1211928060#1"/>
    </person>
    <person id="ped44" type="ped_pedestrian" depart="883.03">
        <walk edges="1212008676#3 1434864170#1 1434864170#0 1211918057#0 1211918072#1 1211918073 1211918058#9 1211988152#1 1211988154 1211988151#4 -877366030#0 1150062811#0 1150062811#1 1150062811#2"/>
    </person>
    <person id="ped45" type="ped_pedestrian" depart="903.10">
        <walk edges="1434864170#1 1434864170#0 1211918057#0 1211918072#1 1211918073 1211918058#9 1211988152#1 1211988154 1211988151#4 -877366030#0 -1150062811#0"/>
    </person>
    <person id="ped46" type="ped_pedestrian" depart="923.16">
        <walk edges="1211918058#9 1211918073 1211918072#1 1211918057#0 1434864170#0 1434864170#1 1212008676#3 1212008676#2 952053680#0"/>
    </person>
    <person id="ped47" type="ped_pedestrian" depart="943.23">
        <walk edges="1211988162 1211988158#1 1211918058#6 1211918058#5 1211918058#4 1211918067 1211918065#1 1211918061#1 1211918061#2 1211918068#1 1211918069 1211918057#2"/>
    </person>
    <person id="ped48" type="ped_pedestrian" depart="963.30">
        <walk edges="443842821#0 -1150062811#2 -1150062811#1 -1150062811#0 877366030#0 1211988151#4 1211988154 1211988152#1 1211918058#9 1211918073 1211918072#1 1211918057#0 1211918057#1"/>
    </person>
    <person id="ped49" type="ped_pedestrian" depart="983.37">
        <walk edges="1150062811#2 -1150062811#1 -1150062811#0 877366030#0 1211988151#4 1211988154 1211988152#1 1211918058#9 1211918073 1211918072#1 1211918057#0 1434864170#0 1434864170#1 1212008676#3 1212008676#2 -952053680#0 -952053681#2"/>
    </person>
    <person id="ped50" type="ped_pedestrian" depart="1003.44">
        <walk edges="1150062811#0 877366030#0 1211988151#4 1211988154 1211988152#1 1211918058#9 1211918073 1211918072#1 1211918057#0 1211918057#1 1434864169#1 1434864169#0"/>
    </person>
    <person id="ped51" type="ped_pedestrian" depart="1023.51">
        <walk edges="1211988160 1211988151#2 1211988151#3 1211988154 1211988152#1 1211918058#9 1211918073 1211918072#1 1211918057#0 1211918057#1"/>
    </person>
    <person id="ped52" type="ped_pedestrian" depart="1043.58">
        <walk edges="-952053681#1 -952053681#3 952053680#0 1212008676#2 1212008676#3 1434864170#1 1434864170#0 1211918057#0 1211918072#1 1211918073 1211918058#9 1211988152#1 1211988154 1211988151#4 -877366030#0 1150062811#0 1150062811#1 1150062811#2 443842821#1"/>
    </person>
    <person id="ped53" type="ped_pedestrian" depart="1063.65">
        <walk edges="1211918061#4 1211918061#3 1211918061#2 1211918062#1 1211918063 1211918058#2 1211918058#1 1211918058#9 1211988152#1 1211988154 1211988151#3 -954814120#0"/>
    </person>
    <person id="ped54" type="ped_pedestrian" depart="1083.71">
        <walk edges="1211918061#1 1211918061#2 1211918068#1 1211918069 1211918057#2 1211918057#1 1434864170#0 1434864170#1 1212008676#3 1212008676#2 -952053680#0 -952053681#3"/>
    </person>
    <person id="ped55" type="ped_pedestrian" depart="1103.78">
        <walk edges="89608638#3 89608607"/>
    </person>
    <person id="ped56" type="ped_pedestrian" depart="1123.85">
        <walk edges="363321486#1 363321486#2 454609716#0 251032657#2 251032657#1 1211928057#0"/>
    </person>
    <person id="ped57" type="ped_pedestrian" depart="1143.92">
        <walk edges="1211928059#0 1211928060#1 1211928061 1211918058#6 1211918058#7 1211988157#1 1211988160 1211988151#2 1211988151#3 1211988151#4 -877366030#0 1150062811#0 1150062813 -1150062812#0"/>
    </person>
    <person id="ped58" type="ped_pedestrian" depart="1163.99">
        <walk edges="1443052783#2 1443052784#0 1443052784#1 1443052778#1 1456031382#0"/>
    </person>
    <person id="ped59" type="ped_pedestrian" depart="1184.06">
        <walk edges="1193997329 -1193997328#0 -1193997327#3 -1193997327#2 251032657#1 1211928057#1 1211928058#1"/>
    </person>
    <person id="ped60" type="ped_pedestrian" depart="1204.13">
        <walk edges="1211918073 1211918058#1 1211918058#2 1211918063 1211918062#1 1211918061#2 1211918061#3 1434864176#1 1434864176#0 1434864175#2 1434864175#3"/>
    </person>
    <person id="ped61" type="ped_pedestrian" depart="1224.20">
        <walk edges="1211988151#2 1211988151#3 1211988154 1211988152#1 1211918058#9 1211918073 1211918072#1 1211918057#0 1434864170#0 1434864170#1 1212008676#3 1212008676#2 -952053680#0 -952053681#3"/>
    </person>
    <person id="ped62" type="ped_pedestrian" depart="1244.26">
        <walk edges="443842821#1 -1150062811#2 -1150062811#1 -1150062811#0 877366030#0 -877366030#1"/>
    </person>
    <person id="ped63" type="ped_pedestrian" depart="1264.33">
        <walk edges="-877408687 954814120#0 1211988151#3 1211988154 1211988152#1 1211918058#9 1211918073 1211918072#1 1211918057#0 1434864170#0 1434864170#1 1212008676#3 1212008676#2"/>
    </person>
    <person id="ped64" type="ped_pedestrian" depart="1284.40">
        <walk edges="1211988160 1211988151#2 1211988151#3 1211988154 1211988152#1 1211918058#9 1211918058#1 1211918058#2 1211918063 1211918062#1 1211918061#2 1211918068#1"/>
    </person>
    <person id="ped65" type="ped_pedestrian" depart="1304.47">
        <walk edges="1211918061#1 1211918061#2 1211918068#1 1211918069 1211918057#2 1211918057#1 1434864170#0 1434864170#1 1212008676#3 1212008676#2 -952053680#0 952053681#3"/>
    </person>
    <person id="ped66" type="ped_pedestrian" depart="1324.54">
        <walk edges="1211918058#4 1211918058#3 1211918058#2 1211918058#1 1211918058#9 1211988152#1 1211988154 1211988151#4 -877366030#0 -1150062811#0"/>
    </person>
    <person id="ped67" type="ped_pedestrian" depart="1344.61">
        <walk edges="1211918061#3 1211918061#2 1211918061#1 1211918065#1 1211918067 1211918058#4 1211928064 1211928063#1"/>
    </person>
    <person id="ped68" type="ped_pedestrian" depart="1364.68">
        <walk edges="1211918061#1 1211918061#2 1211918068#1 1211918069 1211918057#2 1211918057#1 1434864170#0 1434864170#1 1212008676#3 1212008676#2 952053680#1"/>
    </person>
    <person id="ped69" type="ped_pedestrian" depart="1384.75">
        <walk edges="952053681#1 952053681#0"/>
    </person>
    <person id="ped70" type="ped_pedestrian" depart="1404.81">
        <walk edges="1211918059#0 1211918058#1 1211918058#9 1211918058#8"/>
    </person>
    <person id="ped71" type="ped_pedestrian" depart="1424.88">
        <walk edges="952053680#1 -952053680#0 952053681#3 -952053681#1"/>
    </person>
    <person id="ped72" type="ped_pedestrian" depart="1444.95">
        <walk edges="1434864176#0 1434864175#1 1434864175#0 1434864169#0 1434864169#1 1211918057#1 1434864170#0"/>
    </person>
    <person id="ped73" type="ped_pedestrian" depart="1465.02">
        <walk edges="1211918057#1 1434864170#0 1434864170#1 1212008676#3 1212008676#2 952053680#0"/>
    </person>
    <person id="ped74" type="ped_pedestrian" depart="1485.09">
        <walk edges="-443842821#0"/>
    </person>
    <person id="ped75" type="ped_pedestrian" depart="1505.16">
        <walk edges="1212008676#4 1448147674"/>
    </person>
    <person id="ped76" type="ped_pedestrian" depart="1525.23">
        <walk edges="1211918067 1211918058#4 1211918058#5"/>
    </person>
    <person id="ped77" type="ped_pedestrian" depart="1545.30">
        <walk edges="1150062811#0 1150062811#1 -1150062811#2"/>
    </person>
    <person id="ped78" type="ped_pedestrian" depart="1565.36">
        <walk edges="-877408687 954814120#0 1211988151#3 1211988154"/>
    </person>
    <person id="ped79" type="ped_pedestrian" depart="1585.43">
        <walk edges="1211928058#0 1211928057#1"/>
    </person>
    <person id="ped80" type="ped_pedestrian" depart="1605.50">
        <walk edges="1211928063#1 1211928064 1211918058#4 1211918058#3 1211918058#2 1211918058#1 1211918058#9 1211988152#1 1211988154 1211988151#4"/>
    </person>
    <person id="ped81" type="ped_pedestrian" depart="1625.57">
        <walk edges="443842821#1 -1150062811#2 -1150062811#1 -1150062811#0 877366030#0 1211988151#4 1211988154 1211988152#1 1211918058#9 1211918073 1211918072#1 1211918057#0 1434864170#0 1434864170#1 1212008676#3 1212008676#2 -952053680#0 952053681#3"/>
    </person>
    <person id="ped82" type="ped_pedestrian" depart="1645.64">
        <walk edges="-952053680#0 1212008676#2 1212008676#3 1434864170#1 1434864170#0 1211918057#0 1211918072#1 1211918073 1211918058#9 1211988152#1 1211988154 1211988151#4 877366030#0"/>
    </person>
    <person id="ped83" type="ped_pedestrian" depart="1665.71">
        <walk edges="1212008676#2 1212008676#3 1434864170#1 1434864170#0 1211918057#0 1211918072#1 1211918073 1211918058#9 1211988152#1 1211988154 1211988151#4 877366030#0"/>
    </person>
    <person id="ped84" type="ped_pedestrian" depart="1685.78">
        <walk edges="-1193997327#3 -1193997327#2 251032657#2 454609716#0 363321486#2"/>
    </person>
    <person id="ped85" type="ped_pedestrian" depart="1705.85">
        <walk edges="443842821#0 -1150062811#2 -1150062812#0"/>
    </person>
    <person id="ped86" type="ped_pedestrian" depart="1725.92">
        <walk edges="1434864170#1 1434864170#0 1211918057#1 1434864169#1 1434864169#0"/>
    </person>
    <person id="ped87" type="ped_pedestrian" depart="1745.98">
        <walk edges="1211928060#1 1211928061 1211918058#6 1211918058#7 1211918058#8 1211918058#9 1211918073 1211918072#1 1211918057#0 1211918057#1 1434864169#1 1434864169#0 1434864168"/>
    </person>
    <person id="ped88" type="ped_pedestrian" depart="1766.05">
        <walk edges="952053680#0 1212008676#2 1212008676#3 1434864170#1 1434864170#0 1211918057#0 1211918072#1 1211918073 1211918058#9 1211988152#1 1211988154 1211988151#3 1211988151#2 1211988151#1 1211988151#0"/>
    </person>
    <person id="ped89" type="ped_pedestrian" depart="1786.12">
        <walk edges="443842821#0 -1150062811#2 -1150062811#1 -1150062811#0 877366030#0 1211988151#4 1211988154 1211988152#1 1211918058#9 1211918073 1211918072#1"/>
    </person>
    <person id="ped90" type="ped_pedestrian" depart="1806.19">
        <walk edges="1434864170#0 1211918057#0 1211918072#1 1211918073 1211918058#9 1211988152#1 1211988154 1211988151#4 -877366030#1"/>
    </person>
    <person id="ped91" type="ped_pedestrian" depart="1826.26">
        <walk edges="1434864169#0 1434864169#1 1211918057#1 1211918057#0 1211918072#1 1211918073 1211918058#9 1211918058#8 1211918058#7 1211918058#6 1211928061"/>
    </person>
    <person id="ped92" type="ped_pedestrian" depart="1846.33">
        <walk edges="251032657#0 1211928057#0"/>
    </person>
    <person id="ped93" type="ped_pedestrian" depart="1866.40">
        <walk edges="1211918061#4 1211918061#3"/>
    </person>
    <person id="ped94" type="ped_pedestrian" depart="1886.47">
        <walk edges="-1193997327#0 251032657#2 454609716#0 363321486#2 363321486#1"/>
    </person>
    <person id="ped95" type="ped_pedestrian" depart="1906.53">
        <walk edges="1211988158#1 1211918058#6 1211918058#5 1211918058#4 1211918067 1211918065#1 1211918061#1 1211918061#2 1211918061#3 1434864176#1 1434864176#0 1434864175#2"/>
    </person>
    <person id="ped96" type="ped_pedestrian" depart="1926.60">
        <walk edges="952053681#0 952053681#1 -952053681#3 952053680#0 1212008676#2 1212008676#3 1434864170#1 1434864170#0 1211918057#0 1211918072#1 1211918073 1211918058#9 1211988152#1 1211988154 1211988151#4 -877366030#0 1150062811#0 1150062813 -1150062812#0"/>
    </person>
    <person id="ped97" type="ped_pedestrian" depart="1946.67">
        <walk edges="952053680#1 1212008676#2 1212008676#3 1434864170#1 1434864170#0 1211918057#0 1211918072#1 1211918073 1211918058#9 1211988152#1 1211988154 1211988151#4"/>
    </person>
    <person id="ped98" type="ped_pedestrian" depart="1966.74">
        <walk edges="1150062812#1 -1150062813 -1150062811#0 877366030#0 1211988151#4 1211988154 1211988152#1 1211918058#9 1211918073 1211918072#1 1211918057#0 1434864170#0 1434864170#1 1212008676#3 1212008676#2 -952053680#0 -952053681#3"/>
    </person>
    <person id="ped99" type="ped_pedestrian" depart="1986.81">
        <walk edges="1150062811#0 877366030#0 -877366030#1"/>
    </person>
    <person id="ped100" type="ped_pedestrian" depart="2006.88">
        <walk edges="1211918061#4 1211918061#3 1211918061#2 1211918062#1 1211918063 1211918058#2 1211918058#1 1211918058#9 1211988152#1 1211988154 1211988151#4 -877366030#0 -1150062811#0"/>
    </person>
    <person id="ped101" type="ped_pedestrian" depart="2026.95">
        <walk edges="952053681#0 952053681#1 -952053681#3 952053680#0 1212008676#2 1212008676#3 1434864170#1 1434864170#0 1211918057#0 1211918072#1 1211918073 1211918058#9 1211988152#1 1211988154 1211988151#4 -877366030#0"/>
    </person>
    <person id="ped102" type="ped_pedestrian" depart="2047.02">
        <walk edges="1434864175#1 1434864176#0 1434864176#1 1211918061#3 1211918061#2 1211918061#1 1211918065#1 1211918067 1211918058#4 1211918058#5 1211918058#6 1211918058#7"/>
    </person>
    <person id="ped103" type="ped_pedestrian" depart="2067.08">
        <walk edges="1211918065#1 1211918067 1211918058#3 1211918058#2 1211918059#0"/>
    </person>
    <person id="ped104" type="ped_pedestrian" depart="2087.15">
        <walk edges="1211918057#0 1211918072#1 1211918073 1211918058#9 1211918058#8 1211918058#7 1211988158#1 1211988162"/>
    </person>
    <person id="ped105" type="ped_pedestrian" depart="2107.22">
        <walk edges="1212008676#0 952053681#1 -952053681#3 952053680#0 1212008676#2 1212008676#3 1434864170#1 1434864170#0 1211918057#0 1211918072#1 1211918073 1211918058#9 1211988152#1 1211988154 1211988151#3 954814120#0"/>
    </person>
    <person id="ped106" type="ped_pedestrian" depart="2127.29">
        <walk edges="952053681#1 -952053681#2"/>
    </person>
    <person id="ped107" type="ped_pedestrian" depart="2147.36">
        <walk edges="1211918058#9 1211918058#8 1211988157#1"/>
    </person>
    <person id="ped108" type="ped_pedestrian" depart="2167.43">
        <walk edges="1211918058#3 1211918058#2 1211918058#1 1211918058#9 1211988152#1 1211988154 1211988151#4 -877366030#0 1150062811#0 1150062811#1 1150062811#2"/>
    </person>
    <person id="ped109" type="ped_pedestrian" depart="2187.50">
        <walk edges="1448147674 1212008676#4 1434864170#1 1434864170#0 1211918057#0 1211918072#1 1211918073 1211918058#9 1211988152#1 1211988154 1211988151#3 -954814120#0 -1211988156"/>
    </person>
    <person id="ped110" type="ped_pedestrian" depart="2207.57">
        <walk edges="952053680#1 1212008676#2 1212008676#3 1434864170#1 1434864170#0 1211918057#0 1211918072#1 1211918073 1211918058#9 1211988152#1 1211988154 1211988151#4 -877366030#0 1150062811#0 1150062813 -1150062812#0"/>
    </person>
    <person id="ped111" type="ped_pedestrian" depart="2227.63">
        <walk edges="-1150062812#1 -1150062813 -1150062811#0 877366030#0 1211988151#4 1211988154 1211988152#1 1211918058#9 1211918073 1211918072#1 1211918057#0 1434864170#0 1434864170#1 1212008676#3 1212008676#2 -952053680#0 952053681#3 952053681#1"/>
    </person>
    <person id="ped112" type="ped_pedestrian" depart="2247.70">
        <walk edges="1211988151#3 1211988154 1211988152#1 1211918058#9 1211918073 1211918072#1 1211918057#3 1211918057#2"/>
    </person>
    <person id="ped113" type="ped_pedestrian" depart="2267.77">
        <walk edges="-952053681#0 952053681#1 -952053681#3 952053680#0 1212008676#2 1212008676#3 1434864170#1 1434864170#0 1211918057#0 1211918072#1 1211918073 1211918058#9 1211918058#8 1211918058#7 1211988158#1"/>
    </person>
    <person id="ped114" type="ped_pedestrian" depart="2287.84">
        <walk edges="1211928063#1 1211928064 1211918058#4 1211918067"/>
    </person>
    <person id="ped115" type="ped_pedestrian" depart="2307.91">
        <walk edges="443842821#1 -1150062811#2 -1150062811#1 -1150062811#0 877366030#0 1211988151#4 1211988154 1211988152#1 1211918058#9 1211918058#1 1211918058#2 1211918063 1211918062#1 1211918061#2 1211918068#1"/>
    </person>
    <person id="ped116" type="ped_pedestrian" depart="2327.98">
        <walk edges="1434864170#1 1212008676#3 1212008676#2 -952053680#0 952053681#3 -952053681#1 1212008676#0"/>
    </person>
    <person id="ped117" type="ped_pedestrian" depart="2348.05">
        <walk edges="1211918073 1211918058#1 1211918058#2 1211918063 1211918062#1 1211918061#2"/>
    </person>
    <person id="ped118" type="ped_pedestrian" depart="2368.12">
        <walk edges="-1211918059#1 1211918058#1 1211918073 1211918072#1 1211918057#0 1434864170#0 1434864170#1 1212008676#3 1212008676#2 -952053680#0 952053681#3 -952053681#1"/>
    </person>
    <person id="ped119" type="ped_pedestrian" depart="2388.18">
        <walk edges="-952053681#1 -952053681#3 952053680#0 1212008676#2 1212008676#3 1434864170#1 1434864170#0 1211918057#0 1211918072#1 1211918073 1211918058#1 1211918058#2 1211918058#3 1211918058#4 1211928064 1211928063#1 1211928059#1"/>
    </person>
    <person id="ped120" type="ped_pedestrian" depart="2408.25">
        <walk edges="-443842821#0 -1150062811#2 -1150062811#1 -1150062811#0 877366030#0 1211988151#4 1211988154 1211988152#1 1211918058#9 1211918058#1 1211918058#2 1211918063 1211918062#1 1211918061#2 1211918061#3 1211918061#4"/>
    </person>
    <person id="ped121" type="ped_pedestrian" depart="2428.32">
        <walk edges="1211918058#2 1211918058#1 1211918058#9 1211918058#8"/>
    </person>
    <person id="ped122" type="ped_pedestrian" depart="2448.39">
        <walk edges="1211988151#3 -954814120#0 -1211988156"/>
    </person>
    <person id="ped123" type="ped_pedestrian" depart="2468.46">
        <walk edges="1150062811#0 877366030#0 1211988151#4 1211988154 1211988152#1 1211918058#9 1211918073 1211918072#1 1211918057#3 1211918057#2"/>
    </person>
    <person id="ped124" type="ped_pedestrian" depart="2488.53">
        <walk edges="251032657#2 251032657#1 1211928057#0"/>
    </person>
    <person id="ped125" type="ped_pedestrian" depart="2508.60">
        <walk edges="1434864175#0 1434864169#0 1434864169#1 1211918057#1"/>
    </person>
    <person id="ped126" type="ped_pedestrian" depart="2528.67">
        <walk edges="1434864176#0 1434864176#1 1211918061#3 1211918061#2 1211918062#1"/>
    </person>
    <person id="ped127" type="ped_pedestrian" depart="2548.74">