<?xml version="1.0" encoding="UTF-8"?>

<routes xmlns:xsi="http://www.w3.org/2001/XMLSchema-instance" xsi:noNamespaceSchemaLocation="http://sumo.dlr.de/xsd/routes_file.xsd">
    <!-- CRITICAL CHANGE: id="my_ego_car" to match your Python code -->
    <trip id="my_ego_car" depart="0.00" from="254012730" to="-1062498629#0"/>
</routes>