<?xml version="1.0" encoding="UTF-8"?>

<!-- generated on 2026-01-21 21:35:31.094066 by Eclipse SUMO osmWebWizard.py v1.25.0
<configuration>
    <net-file value="/home/hoeman/Sumo/2026-01-21-21-35-18/osm.net.xml.gz"/>
    <output-trip-file value="/home/hoeman/Sumo/2026-01-21-21-35-18/osm.passenger.trips.xml"/>
    <route-file value="/home/hoeman/Sumo/2026-01-21-21-35-18/osm.passenger.rou.xml"/>
    <prefix value="veh"/>
    <trip-attributes value="departLane=&quot;best&quot;"/>
    <fringe-start-attributes value="departSpeed=&quot;max&quot;"/>
    <vehicle-class value="passenger"/>
    <lanes value="True"/>
    <fringe-factor value="20"/>
    <allow-fringe.min-length value="1000.0"/>
    <edge-permission value="passenger"/>
    <via-edge-types value="highway.motorway,highway.motorway_link,highway.trunk_link,highway.primary_link,highway.secondary_link,highway.tertiary_link"/>
    <seed value="44"/>
    <min-distance value="300.0"/>
    <min-distance.fringe value="10.0"/>
    <remove-loops value="True"/>
    <insertion-density value="20.0"/>
</configuration>
-->

<routes xmlns:xsi="http://www.w3.org/2001/XMLSchema-instance" xsi:noNamespaceSchemaLocation="http://sumo.dlr.de/xsd/routes_file.xsd">
    <vType id="veh_passenger" vClass="passenger"/>
    <trip id="veh0" depart="0.00" from="632421983#0" to="-954487029" departLane="best" type="veh_passenger" departSpeed="max"/>
    <trip id="veh1" depart="2.36" from="-167954416" to="-1183389476#4" departLane="best" type="veh_passenger" departSpeed="max"/>
    <trip id="veh2" depart="4.73" from="-166327150#2" to="166098247" departLane="best" type="veh_passenger" departSpeed="max"/>
    <trip id="veh3" depart="7.09" from="967521303" to="455496240" departLane="best" type="veh_passenger" departSpeed="max"/>
    <trip id="veh4" depart="9.46" from="-89626392#1" to="127236380#1" departLane="best" type="veh_passenger" departSpeed="max"/>
    <trip id="veh5" depart="11.82" from="165789704#16" to="118915931#3" departLane="best" type="veh_passenger"/>
    <trip id="veh6" depart="14.18" from="-1266044488#1" to="89864437#3" departLane="best" type="veh_passenger" departSpeed="max"/>
    <trip id="veh7" depart="16.55" from="1192334608#1" to="-168098869" departLane="best" type="veh_passenger"/>
    <trip id="veh8" depart="18.91" from="-166429901" to="-967728445" departLane="best" type="veh_passenger" departSpeed="max"/>
    <trip id="veh9" depart="21.28" from="165789704#0" to="888808685" departLane="best" type="veh_passenger" departSpeed="max"/>
    <trip id="veh10" depart="23.64" from="-954499409" to="-118915940#1" departLane="best" type="veh_passenger" departSpeed="max"/>
    <trip id="veh11" depart="26.00" from="1292284346#1" to="118915940#0" departLane="best" type="veh_passenger"/>
    <trip id="veh12" depart="28.37" from="566512547#0" to="167954416" departLane="best" type="veh_passenger" departSpeed="max"/>
    <trip id="veh13" depart="30.73" from="118915966#0" to="166327150#2" departLane="best" type="veh_passenger" departSpeed="max"/>
    <trip id="veh14" depart="33.09" from="35923599#0" to="343946194" departLane="best" type="veh_passenger" departSpeed="max"/>
    <trip id="veh15" depart="35.46" from="-832010968#1" to="888808685" departLane="best" type="veh_passenger" departSpeed="max"/>
    <trip id="veh16" depart="37.82" from="566514591#1" to="-118915966#0" departLane="best" type="veh_passenger"/>
    <trip id="veh17" depart="40.19" from="-166327150#2" to="-954534283" departLane="best" type="veh_passenger" departSpeed="max"/>
    <trip id="veh18" depart="42.55" from="-1156915072#2" to="696623235#1" departLane="best" type="veh_passenger" departSpeed="max"/>
    <trip id="veh19" depart="44.91" from="967728445" to="1192334609#1" departLane="best" type="veh_passenger" departSpeed="max"/>
    <trip id="veh20" depart="47.28" from="-166431114" to="-168098869" departLane="best" type="veh_passenger" departSpeed="max"/>
    <trip id="veh21" depart="49.64" from="-770583030" to="89748580#0" departLane="best" type="veh_passenger" departSpeed="max"/>
    <trip id="veh22" depart="52.01" from="1192334608#0" to="-1266044488#0" departLane="best" type="veh_passenger" departSpeed="max"/>
    <trip id="veh23" depart="54.37" from="-954499409" to="-1192037623#0" departLane="best" type="veh_passenger" departSpeed="max"/>
    <trip id="veh24" depart="56.73" from="566512547#3" to="166913141" departLane="best" type="veh_passenger"/>
    <trip id="veh25" depart="59.10" from="566514592" to="89626432#2" departLane="best" type="veh_passenger" departSpeed="max"/>
    <trip id="veh26" depart="61.46" from="-168525854" to="-1266044488#0" departLane="best" type="veh_passenger" departSpeed="max"/>
    <trip id="veh27" depart="63.83" from="-967728025" to="954473494" departLane="best" type="veh_passenger" departSpeed="max"/>
    <trip id="veh28" depart="66.19" from="1192334608#0" to="166327205" departLane="best" type="veh_passenger" departSpeed="max"/>
    <trip id="veh29" depart="68.55" from="-954557235" to="1125729949#2" departLane="best" type="veh_passenger" departSpeed="max"/>
    <trip id="veh30" depart="70.92" from="-566514591#4" to="1266044626#2" departLane="best" type="veh_passenger" departSpeed="max"/>
    <trip id="veh31" depart="73.28" from="108534913#0" to="954556415" departLane="best" type="veh_passenger" departSpeed="max"/>
    <trip id="veh32" depart="75.65" from="-1266044488#1" to="-967521303" departLane="best" type="veh_passenger" departSpeed="max"/>
    <trip id="veh33" depart="78.01" from="-1266044488#1" to="1347586928#1" departLane="best" type="veh_passenger" departSpeed="max"/>
    <trip id="veh34" depart="80.37" from="127236381#1" to="954500169" departLane="best" type="veh_passenger"/>
    <trip id="veh35" depart="82.74" from="-1266044626#2" to="954499410#3" departLane="best" type="veh_passenger" departSpeed="max"/>
    <trip id="veh36" depart="85.10" from="167958794" to="1125729949#2" departLane="best" type="veh_passenger"/>
    <trip id="veh37" depart="87.47" from="108179183#0" to="89626392#1" departLane="best" type="veh_passenger" departSpeed="max"/>
    <trip id="veh38" depart="89.83" from="-167956109#1" to="533313749#3" departLane="best" type="veh_passenger" departSpeed="max"/>
    <trip id="veh39" depart="92.19" from="1125912862#5" to="-1266044626#1" departLane="best" type="veh_passenger"/>
    <trip id="veh40" depart="94.56" from="-170055411#3" to="1343685659#0" departLane="best" type="veh_passenger" departSpeed="max"/>
    <trip id="veh41" depart="96.92" from="-166221841#0" to="954556415" departLane="best" type="veh_passenger"/>
    <trip id="veh42" depart="99.28" from="-167958791#1" to="-954537909#2" departLane="best" type="veh_passenger" departSpeed="max"/>
    <trip id="veh43" depart="101.65" from="1192334608#0" to="166311150" departLane="best" type="veh_passenger" departSpeed="max"/>
    <trip id="veh44" depart="104.01" from="-696623237#1" to="118915931#3" departLane="best" type="veh_passenger"/>
    <trip id="veh45" depart="106.38" from="-967500560#1" to="954500169" departLane="best" type="veh_passenger" departSpeed="max"/>
    <trip id="veh46" depart="108.74" from="-1266044626#1" to="954500169" departLane="best" type="veh_passenger"/>
    <trip id="veh47" depart="111.10" from="165789704#10" to="136482748" departLane="best" type="veh_passenger"/>
    <trip id="veh48" depart="113.47" from="-166913141" to="35923691#3" departLane="best" type="veh_passenger" departSpeed="max"/>
    <trip id="veh49" depart="115.83" from="-696622687" to="166311299" departLane="best" type="veh_passenger" departSpeed="max"/>
    <trip id="veh50" depart="118.20" from="-166431235" to="-569561871#1" departLane="best" type="veh_passenger" departSpeed="max"/>
    <trip id="veh51" depart="120.56" from="-166429901" to="-108534913#0" departLane="best" type="veh_passenger" departSpeed="max"/>
    <trip id="veh52" depart="122.92" from="-1425299786" to="1266044488#1" departLane="best" type="veh_passenger" departSpeed="max"/>
    <trip id="veh53" depart="125.29" from="-967521130#1" to="167955357#4" departLane="best" type="veh_passenger" departSpeed="max"/>
    <trip id="veh54" depart="127.65" from="-696622685#0" to="-566514591#2" departLane="best" type="veh_passenger"/>
    <trip id="veh55" depart="130.02" from="165789704#0" to="35923691#3" departLane="best" type="veh_passenger" departSpeed="max"/>
    <trip id="veh56" depart="132.38" from="-696623237#0" to="167958791#1" departLane="best" type="veh_passenger"/>
    <trip id="veh57" depart="134.74" from="566512547#0" to="-108534913#0" departLane="best" type="veh_passenger" departSpeed="max"/>
    <trip id="veh58" depart="137.11" from="35923599#0" to="-168525851#0" departLane="best" type="veh_passenger" departSpeed="max"/>
    <trip id="veh59" depart="139.47" from="-1156915072#2" to="-136482798#0" departLane="best" type="veh_passenger" departSpeed="max"/>
    <trip id="veh60" depart="141.84" from="1125912916#3" to="954473166" departLane="best" type="veh_passenger"/>
    <trip id="veh61" depart="144.20" from="-954499030" to="954549855" departLane="best" type="veh_passenger" departSpeed="max"/>
    <trip id="veh62" depart="146.56" from="-167956109#1" to="1125729949#2" departLane="best" type="veh_passenger" departSpeed="max"/>
    <trip id="veh63" depart="148.93" from="-166311299" to="1049200866" departLane="best" type="veh_passenger" departSpeed="max"/>
    <trip id="veh64" depart="151.29" from="-954473494" to="877420271#1" departLane="best" type="veh_passenger" departSpeed="max"/>
    <trip id="veh65" depart="153.66" from="136482751#3" to="-954487029" departLane="best" type="veh_passenger"/>
    <trip id="veh66" depart="156.02" from="-166334926" to="136482751#1" departLane="best" type="veh_passenger" departSpeed="max"/>
    <trip id="veh67" depart="158.38" from="254017920#2" to="35923691#3" departLane="best" type="veh_passenger"/>
    <trip id="veh68" depart="160.75" from="-89626392#1" to="136482797" departLane="best" type="veh_passenger" departSpeed="max"/>
    <trip id="veh69" depart="163.11" from="455496243#0" to="1125729949#2" departLane="best" type="veh_passenger"/>
    <trip id="veh70" depart="165.47" from="-166429901" to="89748580#0" departLane="best" type="veh_passenger" departSpeed="max"/>
    <trip id="veh71" depart="167.84" from="-954556415" to="167955357#4" departLane="best" type="veh_passenger" departSpeed="max"/>
    <trip id="veh72" depart="170.20" from="-166334926" to="-118915966#0" departLane="best" type="veh_passenger" departSpeed="max"/>
    <trip id="veh73" depart="172.57" from="-167954416" to="1343685659#1" departLane="best" type="veh_passenger" departSpeed="max"/>
    <trip id="veh74" depart="174.93" from="-118915931#3" to="1125729949#2" departLane="best" type="veh_passenger" departSpeed="max"/>
    <trip id="veh75" depart="177.29" from="954534280#0" to="1346602710" departLane="best" type="veh_passenger" departSpeed="max"/>
    <trip id="veh76" depart="179.66" from="-1049200866" to="877423628#2" departLane="best" type="veh_passenger" departSpeed="max"/>
    <trip id="veh77" depart="182.02" from="-566514591#4" to="-954487029" departLane="best" type="veh_passenger" departSpeed="max"/>
    <trip id="veh78" depart="184.39" from="1266044488#0" to="170055409" departLane="best" type="veh_passenger" departSpeed="max"/>
    <trip id="veh79" depart="186.75" from="-696623733" to="538133754#1" departLane="best" type="veh_passenger" departSpeed="max"/>
    <trip id="veh80" depart="189.11" from="832012469#0" to="1192037623#1" departLane="best" type="veh_passenger" departSpeed="max"/>
    <trip id="veh81" depart="191.48" from="118915966#0" to="1156915072#2" departLane="best" type="veh_passenger" departSpeed="max"/>
    <trip id="veh82" depart="193.84" from="-770583030" to="170055411#3" departLane="best" type="veh_passenger" departSpeed="max"/>
    <trip id="veh83" depart="196.21" from="35923599#0" to="1425299787" departLane="best" type="veh_passenger" departSpeed="max"/>
    <trip id="veh84" depart="198.57" from="-89864437#1" to="-935745886" departLane="best" type="veh_passenger"/>
    <trip id="veh85" depart="200.93" from="954537909#0" to="-1215566873#0" departLane="best" type="veh_passenger" departSpeed="max"/>
    <trip id="veh86" depart="203.30" from="-1156915072#2" to="696624364" departLane="best" type="veh_passenger" departSpeed="max"/>
    <trip id="veh87" depart="205.66" from="1125729965#1" to="89748542#2" departLane="best" type="veh_passenger"/>
    <trip id="veh88" depart="208.03" from="-967500560#1" to="954556415" departLane="best" type="veh_passenger" departSpeed="max"/>
    <trip id="veh89" depart="210.39" from="-696624364" to="-954537909#0" departLane="best" type="veh_passenger" departSpeed="max"/>
    <trip id="veh90" depart="212.75" from="89748542#5" to="166311299" departLane="best" type="veh_passenger"/>
    <trip id="veh91" depart="215.12" from="-1156915072#2" to="566512547#4" departLane="best" type="veh_passenger" departSpeed="max"/>
    <trip id="veh92" depart="217.48" from="1266044488#0" to="-168098869" departLane="best" type="veh_passenger" departSpeed="max"/>
    <trip id="veh93" depart="219.84" from="-954499409" to="35923691#3" departLane="best" type="veh_passenger" departSpeed="max"/>
    <trip id="veh94" depart="222.21" from="118915966#0" to="170055411#3" departLane="best" type="veh_passenger" departSpeed="max"/>
    <trip id="veh95" depart="224.57" from="108179183#0" to="-168098869" departLane="best" type="veh_passenger" departSpeed="max"/>
    <trip id="veh96" depart="226.94" from="-166431115" to="-967728445" departLane="best" type="veh_passenger" departSpeed="max"/>
    <trip id="veh97" depart="229.30" from="566512547#0" to="166311299" departLane="best" type="veh_passenger" departSpeed="max"/>
    <trip id="veh98" depart="231.66" from="-1266044626#2" to="166098247" departLane="best" type="veh_passenger" departSpeed="max"/>
    <trip id="veh99" depart="234.03" from="165789704#7" to="-1125912916#3" departLane="best" type="veh_passenger"/>
    <trip id="veh100" depart="236.39" from="-954499030" to="1343685659#1" departLane="best" type="veh_passenger" departSpeed="max"/>
    <trip id="veh101" depart="238.76" from="-696624364" to="-118915966#0" departLane="best" type="veh_passenger" departSpeed="max"/>
    <trip id="veh102" depart="241.12" from="-696624364" to="167955357#2" departLane="best" type="veh_passenger" departSpeed="max"/>
    <trip id="veh103" depart="243.48" from="108179183#0" to="166431115" departLane="best" type="veh_passenger" departSpeed="max"/>
    <trip id="veh104" depart="245.85" from="-166327150#2" to="-118915966#0" departLane="best" type="veh_passenger" departSpeed="max"/>
    <trip id="veh105" depart="248.21" from="136482751#1" to="967500560#1" departLane="best" type="veh_passenger"/>
    <trip id="veh106" depart="250.58" from="-569561871#0" to="566512547#7" departLane="best" type="veh_passenger"/>
    <trip id="veh107" depart="252.94" from="-533313749#3" to="166553316#1" departLane="best" type="veh_passenger" departSpeed="max"/>
    <trip id="veh108" depart="255.30" from="-954557235" to="-967494613" departLane="best" type="veh_passenger" departSpeed="max"/>
    <trip id="veh109" depart="257.67" from="-696623733" to="1125729949#2" departLane="best" type="veh_passenger" departSpeed="max"/>
    <trip id="veh110" depart="260.03" from="-118915928#1" to="-166336263" departLane="best" type="veh_passenger" departSpeed="max"/>
    <trip id="veh111" depart="262.40" from="168525850" to="-967494613" departLane="best" type="veh_passenger"/>
    <trip id="veh112" depart="264.76" from="566514592" to="538133754#1" departLane="best" type="veh_passenger" departSpeed="max"/>
    <trip id="veh113" depart="267.12" from="-166311150" to="954500169" departLane="best" type="veh_passenger" departSpeed="max"/>
    <trip id="veh114" depart="269.49" from="108534913#0" to="1266044626#2" departLane="best" type="veh_passenger" departSpeed="max"/>
    <trip id="veh115" depart="271.85" from="-1266044626#2" to="954499410#3" departLane="best" type="veh_passenger" departSpeed="max"/>
    <trip id="veh116" depart="274.22" from="-832010968#1" to="-108534913#3" departLane="best" type="veh_passenger" departSpeed="max"/>
    <trip id="veh117" depart="276.58" from="-954473166" to="167955357#4" departLane="best" type="veh_passenger" departSpeed="max"/>
    <trip id="veh118" depart="278.94" from="-1125912916#1" to="-935745886" departLane="best" type="veh_passenger"/>
    <trip id="veh119" depart="281.31" from="-954497171#1" to="832010968#1" departLane="best" type="veh_passenger" departSpeed="max"/>
    <trip id="veh120" depart="283.67" from="-935745880#3" to="167955357#4" departLane="best" type="veh_passenger" departSpeed="max"/>
    <trip id="veh121" depart="286.03" from="1266044626#0" to="136482797" departLane="best" type="veh_passenger" departSpeed="max"/>
    <trip id="veh122" depart="288.40" from="967521303" to="954557235" departLane="best" type="veh_passenger" departSpeed="max"/>
    <trip id="veh123" depart="290.76" from="-632421983#0" to="-1188778649" departLane="best" type="veh_passenger"/>
    <trip id="veh124" depart="293.13" from="-166334926" to="1343685659#1" departLane="best" type="veh_passenger" departSpeed="max"/>
    <trip id="veh125" depart="295.49" from="-954497171#1" to="1343685659#1" departLane="best" type="veh_passenger" departSpeed="max"/>
    <trip id="veh126" depart="297.85" from="-954496409" to="696623237#0" departLane="best" type="veh_passenger" departSpeed="max"/>
    <trip id="veh127" depart="300.22" from="-1425299785" to="167955357#2" departLane="best" type="veh_passenger" departSpeed="max"/>
    <trip id="veh128" depart="302.58" from="-89626392#1" to="770583030" departLane="best" type="veh_passenger" departSpeed="max"/>
    <trip id="veh129" depart="304.95" from="165789705#4" to="1192334609#1" departLane="best" type="veh_passenger"/>
    <trip id="veh130" depart="307.31" from="566512547#1" to="-108534913#0" departLane="best" type="veh_passenger"/>
    <trip id="veh131" depart="309.67" from="-696622687" to="166220668" departLane="best" type="veh_passenger" departSpeed="max"/>
    <trip id="veh132" depart="312.04" from="-538402972" to="1266044488#1" departLane="best" type="veh_passenger" departSpeed="max"/>
    <trip id="veh133" depart="314.40" from="632421983#0" to="1125729949#2" departLane="best" type="veh_passenger" departSpeed="max"/>
    <trip id="veh134" depart="316.77" from="165789704#16" to="967500560#1" departLane="best" type="veh_passenger"/>
    <trip id="veh135" depart="319.13" from="-166334926" to="136482751#3" departLane="best" type="veh_passenger" departSpeed="max"/>
    <trip id="veh136" depart="321.49" from="-1425299786" to="954534280#1" departLane="best" type="veh_passenger" departSpeed="max"/>
    <trip id="veh137" depart="323.86" from="-696622686#2" to="166098247" departLane="best" type="veh_passenger"/>
    <trip id="veh138" depart="326.22" from="967494613" to="-877420271#0" departLane="best" type="veh_passenger" departSpeed="max"/>
    <trip id="veh139" depart="328.59" from="-1266044488#1" to="455496242#1" departLane="best" type="veh_passenger" departSpeed="max"/>
    <trip id="veh140" depart="330.95" from="-1191966697" to="-566033568#0" departLane="best" type="veh_passenger"/>
    <trip id="veh141" depart="333.31" from="-832010968#1" to="-1215566873#0" departLane="best" type="veh_passenger" departSpeed="max"/>
    <trip id="veh142" depart="335.68" from="-118915931#3" to="696622687" departLane="best" type="veh_passenger" departSpeed="max"/>
    <trip id="veh143" depart="338.04" from="-118915931#3" to="-170055411#0" departLane="best" type="veh_passenger" departSpeed="max"/>
    <trip id="veh144" depart="340.41" from="566514592" to="35923691#3" departLane="best" type="veh_passenger" departSpeed="max"/>
    <trip id="veh145" depart="342.77" from="-954496409" to="254017920#3" departLane="best" type="veh_passenger" departSpeed="max"/>
    <trip id="veh146" depart="345.13" from="-954499410#3" to="89748580#0" departLane="best" type="veh_passenger" departSpeed="max"/>
    <trip id="veh147" depart="347.50" from="-533313749#3" to="696622687" departLane="best" type="veh_passenger" departSpeed="max"/>
    <trip id="veh148" depart="349.86" from="-166311299" to="166431115" departLane="best" type="veh_passenger" departSpeed="max"/>
    <trip id="veh149" depart="352.22" from="-1347586928#0" to="170055411#3" departLane="best" type="veh_passenger"/>
    <trip id="veh150" depart="354.59" from="165789704#0" to="168525854" departLane="best" type="veh_passenger" departSpeed="max"/>
    <trip id="veh151" depart="356.95" from="-954499030" to="166431115" departLane="best" type="veh_passenger" departSpeed="max"/>
    <trip id="veh152" depart="359.32" from="566033568#1" to="935745870#1" departLane="best" type="veh_passenger"/>
    <trip id="veh153" depart="361.68" from="165789704#0" to="-954537909#0" departLane="best" type="veh_passenger" departSpeed="max"/>
    <trip id="veh154" depart="364.04" from="566512547#0" to="166334928" departLane="best" type="veh_passenger" departSpeed="max"/>
    <trip id="veh155" depart="366.41" from="166553316#0" to="696622685#3" departLane="best" type="veh_passenger" departSpeed="max"/>
    <trip id="veh156" depart="368.77" from="-166431115" to="-1266044626#0" departLane="best" type="veh_passenger" departSpeed="max"/>
    <trip id="veh157" depart="371.14" from="168525851#0" to="170055411#3" departLane="best" type="veh_passenger" departSpeed="max"/>
    <trip id="veh158" depart="373.50" from="-954497171#1" to="167958791#1" departLane="best" type="veh_passenger" departSpeed="max"/>
    <trip id="veh159" depart="375.86" from="-1425299786" to="455496243#1" departLane="best" type="veh_passenger" departSpeed="max"/>
    <trip id="veh160" depart="378.23" from="-166311299" to="35923691#3" departLane="best" type="veh_passenger" departSpeed="max"/>
    <trip id="veh161" depart="380.59" from="-1425299785" to="89748580#0" departLane="best" type="veh_passenger" departSpeed="max"/>
    <trip id="veh162" depart="382.96" from="-168525854" to="954537908" departLane="best" type="veh_passenger" departSpeed="max"/>
    <trip id="veh163" depart="385.32" from="-166098247" to="-167955357#0" departLane="best" type="veh_passenger" departSpeed="max"/>
    <trip id="veh164" depart="387.68" from="566512547#0" to="1343685659#1" departLane="best" type="veh_passenger" departSpeed="max"/>
    <trip id="veh165" depart="390.05" from="-118915931#3" to="-167955357#0" departLane="best" type="veh_passenger" departSpeed="max"/>
    <trip id="veh166" depart="392.41" from="-118915931#3" to="538402972" departLane="best" type="veh_passenger" departSpeed="max"/>
    <trip id="veh167" depart="394.78" from="-119276337#2" to="1125912862#4" departLane="best" type="veh_passenger" departSpeed="max"/>
    <trip id="veh168" depart="397.14" from="165789704#9" to="696622687" departLane="best" type="veh_passenger"/>
    <trip id="veh169" depart="399.50" from="-166327205" to="166913141" departLane="best" type="veh_passenger" departSpeed="max"/>
    <trip id="veh170" depart="401.87" from="538133754#0" to="566514591#4" departLane="best" type="veh_passenger"/>
    <trip id="veh171" depart="404.23" from="166553316#0" to="1343685659#1" departLane="best" type="veh_passenger" departSpeed="max"/>
    <trip id="veh172" depart="406.60" from="1192334608#0" to="-832012469#4" departLane="best" type="veh_passenger" departSpeed="max"/>
    <trip id="veh173" depart="408.96" from="566512547#0" to="-1188778649" departLane="best" type="veh_passenger" departSpeed="max"/>
    <trip id="veh174" depart="411.32" from="-89626392#1" to="967521130#1" departLane="best" type="veh_passenger" departSpeed="max"/>
    <trip id="veh175" depart="413.69" from="166553316#0" to="1346602710" departLane="best" type="veh_passenger" departSpeed="max"/>
    <trip id="veh176" depart="416.05" from="1183389473" to="1343685659#1" departLane="best" type="veh_passenger"/>
    <trip id="veh177" depart="418.41" from="954487028" to="166913141" departLane="best" type="veh_passenger" departSpeed="max"/>
    <trip id="veh178" depart="420.78" from="566512547#0" to="127236381#2" departLane="best" type="veh_passenger" departSpeed="max"/>
    <trip id="veh179" depart="423.14" from="954537909#0" to="-1215566873#0" departLane="best" type="veh_passenger" departSpeed="max"/>
    <trip id="veh180" depart="425.51" from="-954497171#1" to="1346602710" departLane="best" type="veh_passenger" departSpeed="max"/>
    <trip id="veh181" depart="427.87" from="166327207#1" to="170055411#3" departLane="best" type="veh_passenger"/>
    <trip id="veh182" depart="430.23" from="-166327150#2" to="954496409" departLane="best" type="veh_passenger" departSpeed="max"/>
    <trip id="veh183" depart="432.60" from="-967500560#1" to="-168525851#0" departLane="best" type="veh_passenger" departSpeed="max"/>
    <trip id="veh184" depart="434.96" from="-166431115" to="-533313749#1" departLane="best" type="veh_passenger" departSpeed="max"/>
    <trip id="veh185" depart="437.33" from="-166311150" to="166098247" departLane="best" type="veh_passenger" departSpeed="max"/>
    <trip id="veh186" depart="439.69" from="954498204" to="166098247" departLane="best" type="veh_passenger"/>
    <trip id="veh187" depart="442.05" from="566514592" to="166334986" departLane="best" type="veh_passenger" departSpeed="max"/>
    <trip id="veh188" depart="444.42" from="166670873#0" to="877423628#2" departLane="best" type="veh_passenger" departSpeed="max"/>
    <trip id="veh189" depart="446.78" from="954487029" to="165789705#8" departLane="best" type="veh_passenger" departSpeed="max"/>
    <trip id="veh190" depart="449.15" from="165789705#7" to="166670873#3" departLane="best" type="veh_passenger"/>
    <trip id="veh191" depart="451.51" from="566514592" to="-954487029" departLane="best" type="veh_passenger" departSpeed="max"/>
    <trip id="veh192" depart="453.87" from="-954556415" to="-166336263" departLane="best" type="veh_passenger" departSpeed="max"/>
    <trip id="veh193" depart="456.24" from="165789704#12" to="-166323915#0" departLane="best" type="veh_passenger"/>
    <trip id="veh194" depart="458.60" from="35923599#0" to="888808685" departLane="best" type="veh_passenger" departSpeed="max"/>
    <trip id="veh195" depart="460.97" from="-89626432#1" to="954499410#3" departLane="best" type="veh_passenger"/>
    <trip id="veh196" depart="463.33" from="-538402972" to="543222022#5" departLane="best" type="veh_passenger" departSpeed="max"/>
    <trip id="veh197" depart="465.69" from="-136482820#0" to="1192037622" departLane="best" type="veh_passenger"/>
    <trip id="veh198" depart="468.06" from="-954473166" to="954499030" departLane="best" type="veh_passenger" departSpeed="max"/>
    <trip id="veh199" depart="470.42" from="566512547#0" to="-167955357#0" departLane="best" type="veh_passenger" departSpeed="max"/>
    <trip id="veh200" depart="472.78" from="-166327150#2" to="832012469#1" departLane="best" type="veh_passenger" departSpeed="max"/>
    <trip id="veh201" depart="475.15" from="-696622687" to="-1266044626#0" departLane="best" type="veh_passenger" departSpeed="max"/>
    <trip id="veh202" depart="477.51" from="-118915928#1" to="1343685659#1" departLane="best" type="veh_passenger" departSpeed="max"/>
    <trip id="veh203" depart="479.88" from="-1191966699" to="167955357#4" departLane="best" type="veh_passenger"/>
    <trip id="veh204" depart="482.24" from="-967521130#1" to="167954416" departLane="best" type="veh_passenger" departSpeed="max"/>
    <trip id="veh205" depart="484.60" from="1192334608#0" to="-954487028" departLane="best" type="veh_passenger" departSpeed="max"/>
    <trip id="veh206" depart="486.97" from="165789704#0" to="967736095" departLane="best" type="veh_passenger" departSpeed="max"/>
    <trip id="veh207" depart="489.33" from="-696624364" to="35923691#3" departLane="best" type="veh_passenger" departSpeed="max"/>
    <trip id="veh208" depart="491.70" from="-166326997#5" to="967736095" departLane="best" type="veh_passenger"/>
    <trip id="veh209" depart="494.06" from="-119276337#2" to="-967521303" departLane="best" type="veh_passenger" departSpeed="max"/>
    <trip id="veh210" depart="496.42" from="-954496409" to="696624364" departLane="best" type="veh_passenger" departSpeed="max"/>
    <trip id="veh211" depart="498.79" from="108179183#1" to="-166334576#1" departLane="best" type="veh_passenger"/>
    <trip id="veh212" depart="501.15" from="1266044626#0" to="-1292284346#1" departLane="best" type="veh_passenger" departSpeed="max"/>
    <trip id="veh213" depart="503.52" from="-696625776#4" to="967500560#1" departLane="best" type="veh_passenger"/>
    <trip id="veh214" depart="505.88" from="108534913#0" to="954496409" departLane="best" type="veh_passenger" departSpeed="max"/>
    <trip id="veh215" depart="508.24" from="1266044626#0" to="166334986" departLane="best" type="veh_passenger" departSpeed="max"/>
    <trip id="veh216" depart="510.61" from="-118915931#3" to="1425299787" departLane="best" type="veh_passenger" departSpeed="max"/>
    <trip id="veh217" depart="512.97" from="-166311299" to="967736095" departLane="best" type="veh_passenger" departSpeed="max"/>
    <trip id="veh218" depart="515.34" from="1125912862#4" to="877423628#2" departLane="best" type="veh_passenger"/>
    <trip id="veh219" depart="517.70" from="1266044488#0" to="166670873#3" departLane="best" type="veh_passenger" departSpeed="max"/>
    <trip id="veh220" depart="520.06" from="569561871#2" to="-1156915072#0" departLane="best" type="veh_passenger"/>
    <trip id="veh221" depart="522.43" from="-832010968#1" to="168525854" departLane="best" type="veh_passenger" departSpeed="max"/>