<?xml version="1.0" encoding="UTF-8"?>

<!-- generated on 2026-01-21 21:35:29.176944 by Eclipse SUMO osmWebWizard.py v1.25.0
<configuration>
    <net-file value="/home/hoeman/Sumo/2026-01-21-21-35-18/osm.net.xml.gz"/>
    <output-trip-file value="/home/hoeman/Sumo/2026-01-21-21-35-18/osm.motorcycle.trips.xml"/>
    <route-file value="/home/hoeman/Sumo/2026-01-21-21-35-18/osm.motorcycle.rou.xml"/>
    <prefix value="motorcycle"/>
    <trip-attributes value="departLane=&quot;best&quot;"/>
    <fringe-start-attributes value="departSpeed=&quot;max&quot;"/>
    <vehicle-class value="motorcycle"/>
    <fringe-factor value="20"/>
    <edge-permission value="motorcycle"/>
    <via-edge-types value="highway.motorway,highway.motorway_link,highway.trunk_link,highway.primary_link,highway.secondary_link,highway.tertiary_link"/>
    <seed value="43"/>
    <max-distance value="1200.0"/>
    <remove-loops value="True"/>
    <insertion-density value="40.0"/>
</configuration>
-->

<routes xmlns:xsi="http://www.w3.org/2001/XMLSchema-instance" xsi:noNamespaceSchemaLocation="http://sumo.dlr.de/xsd/routes_file.xsd">
    <vType id="motorcycle_motorcycle" vClass="motorcycle"/>
    <trip id="motorcycle0" depart="0.00" from="-1456657573" to="1425299786" departLane="best" type="motorcycle_motorcycle" departSpeed="max"/>
    <trip id="motorcycle1" depart="1.18" from="1215566873#0" to="877423628#2" departLane="best" type="motorcycle_motorcycle" departSpeed="max"/>
    <trip id="motorcycle2" depart="2.36" from="-954473494" to="166311150" departLane="best" type="motorcycle_motorcycle" departSpeed="max"/>
    <trip id="motorcycle3" depart="3.55" from="-1156915072#2" to="136482748" departLane="best" type="motorcycle_motorcycle" departSpeed="max"/>
    <trip id="motorcycle4" depart="4.73" from="-696625776#2" to="954473494" departLane="best" type="motorcycle_motorcycle"/>
    <trip id="motorcycle5" depart="5.91" from="-967500560#1" to="696625776#4" departLane="best" type="motorcycle_motorcycle" departSpeed="max"/>
    <trip id="motorcycle6" depart="7.09" from="-935745880#3" to="-935745886" departLane="best" type="motorcycle_motorcycle" departSpeed="max"/>
    <trip id="motorcycle7" depart="8.27" from="-770583030" to="-166336263" departLane="best" type="motorcycle_motorcycle" departSpeed="max"/>
    <trip id="motorcycle8" depart="9.46" from="-119276337#0" to="954556415" departLane="best" type="motorcycle_motorcycle"/>
    <trip id="motorcycle9" depart="10.64" from="954487028" to="166327150#2" departLane="best" type="motorcycle_motorcycle" departSpeed="max"/>
    <trip id="motorcycle10" depart="11.82" from="1266044488#0" to="-166336263" departLane="best" type="motorcycle_motorcycle" departSpeed="max"/>
    <trip id="motorcycle11" depart="13.00" from="1125912862#4" to="877420271#1" departLane="best" type="motorcycle_motorcycle"/>
    <trip id="motorcycle12" depart="14.18" from="-166311299" to="954473494" departLane="best" type="motorcycle_motorcycle" departSpeed="max"/>
    <trip id="motorcycle13" depart="15.37" from="168098869" to="-118915966#1" departLane="best" type="motorcycle_motorcycle" departSpeed="max"/>
    <trip id="motorcycle14" depart="16.55" from="-166327205" to="167954416" departLane="best" type="motorcycle_motorcycle" departSpeed="max"/>
    <trip id="motorcycle15" depart="17.73" from="-136482748" to="166258974#2" departLane="best" type="motorcycle_motorcycle" departSpeed="max"/>
    <trip id="motorcycle16" depart="18.91" from="168098869" to="967500560#1" departLane="best" type="motorcycle_motorcycle" departSpeed="max"/>
    <trip id="motorcycle17" depart="20.09" from="165789704#14" to="-118915940#0" departLane="best" type="motorcycle_motorcycle"/>
    <trip id="motorcycle18" depart="21.28" from="-1266044488#1" to="343946194" departLane="best" type="motorcycle_motorcycle" departSpeed="max"/>
    <trip id="motorcycle19" depart="22.46" from="-166098247" to="89626392#1" departLane="best" type="motorcycle_motorcycle" departSpeed="max"/>
    <trip id="motorcycle20" depart="23.64" from="-136482748" to="166334928" departLane="best" type="motorcycle_motorcycle" departSpeed="max"/>
    <trip id="motorcycle21" depart="24.82" from="-954473166" to="-1188778649" departLane="best" type="motorcycle_motorcycle" departSpeed="max"/>
    <trip id="motorcycle22" depart="26.00" from="-1049200866" to="954500169" departLane="best" type="motorcycle_motorcycle" departSpeed="max"/>
    <trip id="motorcycle23" depart="27.19" from="954498206#2" to="954499409" departLane="best" type="motorcycle_motorcycle"/>
    <trip id="motorcycle24" depart="28.37" from="-566514591#4" to="566514591#4" departLane="best" type="motorcycle_motorcycle" departSpeed="max"/>
    <trip id="motorcycle25" depart="29.55" from="-954499410#3" to="954556415" departLane="best" type="motorcycle_motorcycle" departSpeed="max"/>
    <trip id="motorcycle26" depart="30.73" from="136482799#1" to="954473166" departLane="best" type="motorcycle_motorcycle"/>
    <trip id="motorcycle27" depart="31.91" from="566512547#3" to="543222022#2" departLane="best" type="motorcycle_motorcycle"/>
    <trip id="motorcycle28" depart="33.09" from="-166431115" to="1425299785" departLane="best" type="motorcycle_motorcycle" departSpeed="max"/>
    <trip id="motorcycle29" depart="34.28" from="-119276337#0" to="-1125912866" departLane="best" type="motorcycle_motorcycle"/>
    <trip id="motorcycle30" depart="35.46" from="-954557235" to="167955357#4" departLane="best" type="motorcycle_motorcycle" departSpeed="max"/>
    <trip id="motorcycle31" depart="36.64" from="-1425299785" to="832010968#1" departLane="best" type="motorcycle_motorcycle" departSpeed="max"/>
    <trip id="motorcycle32" depart="37.82" from="-770583030" to="1183389476#4" departLane="best" type="motorcycle_motorcycle" departSpeed="max"/>
    <trip id="motorcycle33" depart="39.00" from="-167955351#9" to="-170055411#1" departLane="best" type="motorcycle_motorcycle"/>
    <trip id="motorcycle34" depart="40.19" from="-967728025" to="538133754#1" departLane="best" type="motorcycle_motorcycle" departSpeed="max"/>
    <trip id="motorcycle35" depart="41.37" from="-166334926" to="-118915966#0" departLane="best" type="motorcycle_motorcycle" departSpeed="max"/>
    <trip id="motorcycle36" depart="42.55" from="-167956109#1" to="170055411#3" departLane="best" type="motorcycle_motorcycle" departSpeed="max"/>
    <trip id="motorcycle37" depart="43.73" from="-119276362" to="538402972" departLane="best" type="motorcycle_motorcycle" departSpeed="max"/>
    <trip id="motorcycle38" depart="44.91" from="166326997#2" to="163637943#2" departLane="best" type="motorcycle_motorcycle"/>
    <trip id="motorcycle39" depart="46.10" from="1188778649" to="1049200866" departLane="best" type="motorcycle_motorcycle" departSpeed="max"/>
    <trip id="motorcycle40" depart="47.28" from="-954499030" to="136482797" departLane="best" type="motorcycle_motorcycle" departSpeed="max"/>
    <trip id="motorcycle41" depart="48.46" from="-967500560#1" to="954473166" departLane="best" type="motorcycle_motorcycle" departSpeed="max"/>
    <trip id="motorcycle42" depart="49.64" from="108179314" to="-108534913#3" departLane="best" type="motorcycle_motorcycle" departSpeed="max"/>
    <trip id="motorcycle43" depart="50.82" from="-136482748" to="954499409" departLane="best" type="motorcycle_motorcycle" departSpeed="max"/>
    <trip id="motorcycle44" depart="52.01" from="967521303" to="167955351#7" departLane="best" type="motorcycle_motorcycle" departSpeed="max"/>
    <trip id="motorcycle45" depart="53.19" from="166326997#3" to="166327150#2" departLane="best" type="motorcycle_motorcycle"/>
    <trip id="motorcycle46" depart="54.37" from="-167954416" to="166098247" departLane="best" type="motorcycle_motorcycle" departSpeed="max"/>
    <trip id="motorcycle47" depart="55.55" from="-954496409" to="1125729949#1" departLane="best" type="motorcycle_motorcycle" departSpeed="max"/>
    <trip id="motorcycle48" depart="56.73" from="-569561871#1" to="136482797" departLane="best" type="motorcycle_motorcycle"/>
    <trip id="motorcycle49" depart="57.92" from="1341152012#1" to="136482797" departLane="best" type="motorcycle_motorcycle"/>
    <trip id="motorcycle50" depart="59.10" from="-166431235" to="1425299786" departLane="best" type="motorcycle_motorcycle" departSpeed="max"/>
    <trip id="motorcycle51" depart="60.28" from="-166566140#0" to="166913141" departLane="best" type="motorcycle_motorcycle"/>
    <trip id="motorcycle52" depart="61.46" from="-166327150#2" to="954499409" departLane="best" type="motorcycle_motorcycle" departSpeed="max"/>
    <trip id="motorcycle53" depart="62.64" from="-166327150#2" to="954556415" departLane="best" type="motorcycle_motorcycle" departSpeed="max"/>
    <trip id="motorcycle54" depart="63.83" from="566514592" to="1125912865" departLane="best" type="motorcycle_motorcycle" departSpeed="max"/>
    <trip id="motorcycle55" depart="65.01" from="-166098247" to="538133754#1" departLane="best" type="motorcycle_motorcycle" departSpeed="max"/>
    <trip id="motorcycle56" depart="66.19" from="-136482748" to="455496240" departLane="best" type="motorcycle_motorcycle" departSpeed="max"/>
    <trip id="motorcycle57" depart="67.37" from="-954499409" to="89748580#0" departLane="best" type="motorcycle_motorcycle" departSpeed="max"/>
    <trip id="motorcycle58" depart="68.55" from="-168525854" to="35923691#3" departLane="best" type="motorcycle_motorcycle" departSpeed="max"/>
    <trip id="motorcycle59" depart="69.74" from="-166334986" to="538402972" departLane="best" type="motorcycle_motorcycle" departSpeed="max"/>
    <trip id="motorcycle60" depart="70.92" from="1266044488#0" to="166334986" departLane="best" type="motorcycle_motorcycle" departSpeed="max"/>
    <trip id="motorcycle61" depart="72.10" from="-954499030" to="954557235" departLane="best" type="motorcycle_motorcycle" departSpeed="max"/>
    <trip id="motorcycle62" depart="73.28" from="-566033568#0" to="-118915966#0" departLane="best" type="motorcycle_motorcycle"/>
    <trip id="motorcycle63" depart="74.46" from="-166327205" to="167958791#1" departLane="best" type="motorcycle_motorcycle" departSpeed="max"/>
    <trip id="motorcycle64" depart="75.65" from="-166334986" to="954489993" departLane="best" type="motorcycle_motorcycle" departSpeed="max"/>
    <trip id="motorcycle65" depart="76.83" from="-877423628#2" to="-1215566873#0" departLane="best" type="motorcycle_motorcycle" departSpeed="max"/>
    <trip id="motorcycle66" depart="78.01" from="1183389476#1" to="-136482798#1" departLane="best" type="motorcycle_motorcycle"/>
    <trip id="motorcycle67" depart="79.19" from="167958794" to="-1188778649" departLane="best" type="motorcycle_motorcycle"/>
    <trip id="motorcycle68" depart="80.37" from="-119276362" to="954499030" departLane="best" type="motorcycle_motorcycle" departSpeed="max"/>
    <trip id="motorcycle69" depart="81.56" from="-167958791#1" to="167954416" departLane="best" type="motorcycle_motorcycle" departSpeed="max"/>
    <trip id="motorcycle70" depart="82.74" from="-533313749#3" to="888808685" departLane="best" type="motorcycle_motorcycle" departSpeed="max"/>
    <trip id="motorcycle71" depart="83.92" from="696622685#2" to="254017920#2" departLane="best" type="motorcycle_motorcycle"/>
    <trip id="motorcycle72" depart="85.10" from="-166334986" to="136482748" departLane="best" type="motorcycle_motorcycle" departSpeed="max"/>
    <trip id="motorcycle73" depart="86.28" from="566514592" to="166098247" departLane="best" type="motorcycle_motorcycle" departSpeed="max"/>
    <trip id="motorcycle74" depart="87.47" from="-1156915072#2" to="89626530#1" departLane="best" type="motorcycle_motorcycle" departSpeed="max"/>
    <trip id="motorcycle75" depart="88.65" from="-166098247" to="-1188778649" departLane="best" type="motorcycle_motorcycle" departSpeed="max"/>
    <trip id="motorcycle76" depart="89.83" from="-967728737" to="832010968#1" departLane="best" type="motorcycle_motorcycle" departSpeed="max"/>
    <trip id="motorcycle77" depart="91.01" from="-136482748" to="136482797" departLane="best" type="motorcycle_motorcycle" departSpeed="max"/>
    <trip id="motorcycle78" depart="92.19" from="-954496409" to="-168098869" departLane="best" type="motorcycle_motorcycle" departSpeed="max"/>
    <trip id="motorcycle79" depart="93.38" from="1266044626#0" to="166311150" departLane="best" type="motorcycle_motorcycle" departSpeed="max"/>
    <trip id="motorcycle80" depart="94.56" from="-954549855" to="-954534280#0" departLane="best" type="motorcycle_motorcycle" departSpeed="max"/>
    <trip id="motorcycle81" depart="95.74" from="-136482797" to="136482748" departLane="best" type="motorcycle_motorcycle" departSpeed="max"/>
    <trip id="motorcycle82" depart="96.92" from="1192334608#0" to="166430752" departLane="best" type="motorcycle_motorcycle" departSpeed="max"/>
    <trip id="motorcycle83" depart="98.10" from="954481588#1" to="1177836295#2" departLane="best" type="motorcycle_motorcycle"/>
    <trip id="motorcycle84" depart="99.28" from="-1183389476#0" to="569561871#1" departLane="best" type="motorcycle_motorcycle"/>
    <trip id="motorcycle85" depart="100.47" from="-1266044626#2" to="167955357#3" departLane="best" type="motorcycle_motorcycle" departSpeed="max"/>
    <trip id="motorcycle86" depart="101.65" from="-1192037623#1" to="1346602710" departLane="best" type="motorcycle_motorcycle" departSpeed="max"/>
    <trip id="motorcycle87" depart="102.83" from="-167954416" to="954557235" departLane="best" type="motorcycle_motorcycle" departSpeed="max"/>
    <trip id="motorcycle88" depart="104.01" from="-170055411#3" to="1192037622" departLane="best" type="motorcycle_motorcycle" departSpeed="max"/>
    <trip id="motorcycle89" depart="105.19" from="-167956109#1" to="1156915072#2" departLane="best" type="motorcycle_motorcycle" departSpeed="max"/>
    <trip id="motorcycle90" depart="106.38" from="-166429901" to="-168098869" departLane="best" type="motorcycle_motorcycle" departSpeed="max"/>
    <trip id="motorcycle91" depart="107.56" from="-543431365#0" to="166431115" departLane="best" type="motorcycle_motorcycle"/>
    <trip id="motorcycle92" depart="108.74" from="-696623733" to="967521130#1" departLane="best" type="motorcycle_motorcycle" departSpeed="max"/>
    <trip id="motorcycle93" depart="109.92" from="954487029" to="136482797" departLane="best" type="motorcycle_motorcycle" departSpeed="max"/>
    <trip id="motorcycle94" depart="111.10" from="-935745880#3" to="-935745886" departLane="best" type="motorcycle_motorcycle" departSpeed="max"/>
    <trip id="motorcycle95" depart="112.29" from="108534913#3" to="166311299" departLane="best" type="motorcycle_motorcycle"/>
    <trip id="motorcycle96" depart="113.47" from="-832010968#1" to="1266044626#2" departLane="best" type="motorcycle_motorcycle" departSpeed="max"/>
    <trip id="motorcycle97" depart="114.65" from="167955357#0" to="-935745867#1" departLane="best" type="motorcycle_motorcycle" departSpeed="max"/>
    <trip id="motorcycle98" depart="115.83" from="-166327207#0" to="118915964#1" departLane="best" type="motorcycle_motorcycle"/>
    <trip id="motorcycle99" depart="117.01" from="1125912866" to="1177836295#0" departLane="best" type="motorcycle_motorcycle"/>
    <trip id="motorcycle100" depart="118.20" from="967521303" to="954499030" departLane="best" type="motorcycle_motorcycle" departSpeed="max"/>
    <trip id="motorcycle101" depart="119.38" from="-954473494" to="696623733" departLane="best" type="motorcycle_motorcycle" departSpeed="max"/>
    <trip id="motorcycle102" depart="120.56" from="-167954416" to="170055411#3" departLane="best" type="motorcycle_motorcycle" departSpeed="max"/>
    <trip id="motorcycle103" depart="121.74" from="-167955357#4" to="-935745886" departLane="best" type="motorcycle_motorcycle" departSpeed="max"/>
    <trip id="motorcycle104" depart="122.92" from="-954473166" to="166311150" departLane="best" type="motorcycle_motorcycle" departSpeed="max"/>
    <trip id="motorcycle105" depart="124.11" from="-118915964#1" to="-89864437#5" departLane="best" type="motorcycle_motorcycle" departSpeed="max"/>
    <trip id="motorcycle106" depart="125.29" from="-832010968#1" to="166334986" departLane="best" type="motorcycle_motorcycle" departSpeed="max"/>
    <trip id="motorcycle107" depart="126.47" from="967521303" to="1192334609#1" departLane="best" type="motorcycle_motorcycle" departSpeed="max"/>
    <trip id="motorcycle108" depart="127.65" from="-1266044488#1" to="954537908" departLane="best" type="motorcycle_motorcycle" departSpeed="max"/>
    <trip id="motorcycle109" depart="128.83" from="-166098247" to="166098247" departLane="best" type="motorcycle_motorcycle" departSpeed="max"/>
    <trip id="motorcycle110" depart="130.02" from="-167958791#1" to="-967521303" departLane="best" type="motorcycle_motorcycle" departSpeed="max"/>
    <trip id="motorcycle111" depart="131.20" from="-954496409" to="538402972" departLane="best" type="motorcycle_motorcycle" departSpeed="max"/>
    <trip id="motorcycle112" depart="132.38" from="35923599#0" to="954557235" departLane="best" type="motorcycle_motorcycle" departSpeed="max"/>
    <trip id="motorcycle113" depart="133.56" from="-1156915072#2" to="89748580#0" departLane="best" type="motorcycle_motorcycle" departSpeed="max"/>
    <trip id="motorcycle114" depart="134.74" from="-566514591#4" to="696622685#0" departLane="best" type="motorcycle_motorcycle" departSpeed="max"/>
    <trip id="motorcycle115" depart="135.93" from="566512547#4" to="136482797" departLane="best" type="motorcycle_motorcycle"/>
    <trip id="motorcycle116" depart="137.11" from="-166913141" to="1346602710" departLane="best" type="motorcycle_motorcycle" departSpeed="max"/>
    <trip id="motorcycle117" depart="138.29" from="-538402972" to="167958791#1" departLane="best" type="motorcycle_motorcycle" departSpeed="max"/>
    <trip id="motorcycle118" depart="139.47" from="-533313749#3" to="166098247" departLane="best" type="motorcycle_motorcycle" departSpeed="max"/>
    <trip id="motorcycle119" depart="140.65" from="-1266044488#1" to="1156915072#2" departLane="best" type="motorcycle_motorcycle" departSpeed="max"/>
    <trip id="motorcycle120" depart="141.84" from="-136482797" to="165789705#2" departLane="best" type="motorcycle_motorcycle" departSpeed="max"/>
    <trip id="motorcycle121" depart="143.02" from="-967728737" to="-1188778649" departLane="best" type="motorcycle_motorcycle" departSpeed="max"/>
    <trip id="motorcycle122" depart="144.20" from="127236381#1" to="770583030" departLane="best" type="motorcycle_motorcycle"/>
    <trip id="motorcycle123" depart="145.38" from="967521303" to="-954537909#0" departLane="best" type="motorcycle_motorcycle" departSpeed="max"/>
    <trip id="motorcycle124" depart="146.56" from="-954473494" to="877420271#1" departLane="best" type="motorcycle_motorcycle" departSpeed="max"/>
    <trip id="motorcycle125" depart="147.75" from="-538402972" to="954500169" departLane="best" type="motorcycle_motorcycle" departSpeed="max"/>
    <trip id="motorcycle126" depart="148.93" from="-770583030" to="954557235" departLane="best" type="motorcycle_motorcycle" departSpeed="max"/>
    <trip id="motorcycle127" depart="150.11" from="455496243#0" to="118915964#1" departLane="best" type="motorcycle_motorcycle"/>
    <trip id="motorcycle128" depart="151.29" from="-89626392#1" to="166431115" departLane="best" type="motorcycle_motorcycle" departSpeed="max"/>
    <trip id="motorcycle129" depart="152.47" from="-1266044626#1" to="954473166" departLane="best" type="motorcycle_motorcycle"/>
    <trip id="motorcycle130" depart="153.66" from="35923599#0" to="696623733" departLane="best" type="motorcycle_motorcycle" departSpeed="max"/>
    <trip id="motorcycle131" depart="154.84" from="166326997#5" to="166311299" departLane="best" type="motorcycle_motorcycle"/>
    <trip id="motorcycle132" depart="156.02" from="-1266044488#1" to="118915964#1" departLane="best" type="motorcycle_motorcycle" departSpeed="max"/>
    <trip id="motorcycle133" depart="157.20" from="-538402972" to="1183389475#0" departLane="best" type="motorcycle_motorcycle" departSpeed="max"/>
    <trip id="motorcycle134" depart="158.38" from="-954557235" to="-168098869" departLane="best" type="motorcycle_motorcycle" departSpeed="max"/>
    <trip id="motorcycle135" depart="159.56" from="1192334608#0" to="166431114" departLane="best" type="motorcycle_motorcycle" departSpeed="max"/>
    <trip id="motorcycle136" depart="160.75" from="1188778649" to="136482797" departLane="best" type="motorcycle_motorcycle" departSpeed="max"/>
    <trip id="motorcycle137" depart="161.93" from="-1425299786" to="954500169" departLane="best" type="motorcycle_motorcycle" departSpeed="max"/>
    <trip id="motorcycle138" depart="163.11" from="-166431115" to="954499030" departLane="best" type="motorcycle_motorcycle" departSpeed="max"/>
    <trip id="motorcycle139" depart="164.29" from="-832010968#1" to="166429901" departLane="best" type="motorcycle_motorcycle" departSpeed="max"/>
    <trip id="motorcycle140" depart="165.47" from="967716352" to="954473494" departLane="best" type="motorcycle_motorcycle"/>
    <trip id="motorcycle141" depart="166.66" from="-832010968#1" to="118915931#3" departLane="best" type="motorcycle_motorcycle" departSpeed="max"/>
    <trip id="motorcycle142" depart="167.84" from="954487028" to="954556415" departLane="best" type="motorcycle_motorcycle" departSpeed="max"/>
    <trip id="motorcycle143" depart="169.02" from="-696623733" to="-168525851#0" departLane="best" type="motorcycle_motorcycle" departSpeed="max"/>
    <trip id="motorcycle144" depart="170.20" from="-954556415" to="1425299786" departLane="best" type="motorcycle_motorcycle" departSpeed="max"/>
    <trip id="motorcycle145" depart="171.38" from="-954473166" to="167954416" departLane="best" type="motorcycle_motorcycle" departSpeed="max"/>
    <trip id="motorcycle146" depart="172.57" from="-1156915072#0" to="166431114" departLane="best" type="motorcycle_motorcycle"/>
    <trip id="motorcycle147" depart="173.75" from="1266044488#0" to="166429901" departLane="best" type="motorcycle_motorcycle" departSpeed="max"/>
    <trip id="motorcycle148" depart="174.93" from="-1049200866" to="166431115" departLane="best" type="motorcycle_motorcycle" departSpeed="max"/>
    <trip id="motorcycle149" depart="176.11" from="-166429901" to="1425299785" departLane="best" type="motorcycle_motorcycle" departSpeed="max"/>
    <trip id="motorcycle150" depart="177.29" from="1125729949#0" to="166327205" departLane="best" type="motorcycle_motorcycle"/>
    <trip id="motorcycle151" depart="178.48" from="-1266044626#2" to="935745866#1" departLane="best" type="motorcycle_motorcycle" departSpeed="max"/>
    <trip id="motorcycle152" depart="179.66" from="-954499409" to="166326997#5" departLane="best" type="motorcycle_motorcycle" departSpeed="max"/>
    <trip id="motorcycle153" depart="180.84" from="-954473494" to="-1188778649" departLane="best" type="motorcycle_motorcycle" departSpeed="max"/>
    <trip id="motorcycle154" depart="182.02" from="-119276362" to="-168525850" departLane="best" type="motorcycle_motorcycle" departSpeed="max"/>
    <trip id="motorcycle155" depart="183.20" from="543222022#3" to="538402972" departLane="best" type="motorcycle_motorcycle"/>
    <trip id="motorcycle156" depart="184.39" from="-166431115" to="166566140#0" departLane="best" type="motorcycle_motorcycle" departSpeed="max"/>
    <trip id="motorcycle157" depart="185.57" from="1192334608#0" to="-967728445" departLane="best" type="motorcycle_motorcycle" departSpeed="max"/>
    <trip id="motorcycle158" depart="186.75" from="-877423628#2" to="877423628#2" departLane="best" type="motorcycle_motorcycle" departSpeed="max"/>
    <trip id="motorcycle159" depart="187.93" from="108179314" to="967524309" departLane="best" type="motorcycle_motorcycle" departSpeed="max"/>
    <trip id="motorcycle160" depart="189.11" from="-566514591#4" to="-967728445" departLane="best" type="motorcycle_motorcycle" departSpeed="max"/>
    <trip id="motorcycle161" depart="190.30" from="455496242#0" to="967736095" departLane="best" type="motorcycle_motorcycle"/>
    <trip id="motorcycle162" depart="191.48" from="-166429901" to="1266044488#1" departLane="best" type="motorcycle_motorcycle" departSpeed="max"/>
    <trip id="motorcycle163" depart="192.66" from="-770583030" to="542923582#2" departLane="best" type="motorcycle_motorcycle" departSpeed="max"/>
    <trip id="motorcycle164" depart="193.84" from="954534283" to="-967494613" departLane="best" type="motorcycle_motorcycle" departSpeed="max"/>
    <trip id="motorcycle165" depart="195.02" from="-136482797" to="167954416" departLane="best" type="motorcycle_motorcycle" departSpeed="max"/>
    <trip id="motorcycle166" depart="196.21" from="-166334926" to="89864437#5" departLane="best" type="motorcycle_motorcycle" departSpeed="max"/>
    <trip id="motorcycle167" depart="197.39" from="166336263" to="888808685" departLane="best" type="motorcycle_motorcycle" departSpeed="max"/>
    <trip id="motorcycle168" depart="198.57" from="-832012469#2" to="-935745886" departLane="best" type="motorcycle_motorcycle"/>
    <trip id="motorcycle169" depart="199.75" from="-166431235" to="89748540" departLane="best" type="motorcycle_motorcycle" departSpeed="max"/>
    <trip id="motorcycle170" depart="200.93" from="-136482797" to="770583030" departLane="best" type="motorcycle_motorcycle" departSpeed="max"/>
    <trip id="motorcycle171" depart="202.12" from="166334822" to="696622686#1" departLane="best" type="motorcycle_motorcycle"/>
    <trip id="motorcycle172" depart="203.30" from="168525851#0" to="1192334609#1" departLane="best" type="motorcycle_motorcycle" departSpeed="max"/>
    <trip id="motorcycle173" depart="204.48" from="-166431115" to="-168098869" departLane="best" type="motorcycle_motorcycle" departSpeed="max"/>
    <trip id="motorcycle174" depart="205.66" from="-118915964#1" to="-967521303" departLane="best" type="motorcycle_motorcycle" departSpeed="max"/>
    <trip id="motorcycle175" depart="206.84" from="-967728737" to="967524309" departLane="best" type="motorcycle_motorcycle" departSpeed="max"/>
    <trip id="motorcycle176" depart="208.03" from="-967728737" to="166311150" departLane="best" type="motorcycle_motorcycle" departSpeed="max"/>
    <trip id="motorcycle177" depart="209.21" from="-1156915072#2" to="-967728445" departLane="best" type="motorcycle_motorcycle" departSpeed="max"/>
    <trip id="motorcycle178" depart="210.39" from="-954500169" to="166311299" departLane="best" type="motorcycle_motorcycle" departSpeed="max"/>
    <trip id="motorcycle179" depart="211.57" from="-166431114" to="118915964#1" departLane="best" type="motorcycle_motorcycle" departSpeed="max"/>
    <trip id="motorcycle180" depart="212.75" from="-954499030" to="136482748" departLane="best" type="motorcycle_motorcycle" departSpeed="max"/>
    <trip id="motorcycle181" depart="213.94" from="108179314" to="566514591#4" departLane="best" type="motorcycle_motorcycle" departSpeed="max"/>
    <trip id="motorcycle182" depart="215.12" from="-108534913#6" to="-168525851#0" departLane="best" type="motorcycle_motorcycle"/>
    <trip id="motorcycle183" depart="216.30" from="166553316#0" to="696624364" departLane="best" type="motorcycle_motorcycle" departSpeed="max"/>
    <trip id="motorcycle184" depart="217.48" from="-832010968#1" to="168525854" departLane="best" type="motorcycle_motorcycle" departSpeed="max"/>
    <trip id="motorcycle185" depart="218.66" from="632421982#0" to="696622687" departLane="best" type="motorcycle_motorcycle"/>
    <trip id="motorcycle186" depart="219.84" from="-696622686#1" to="166429901" departLane="best" type="motorcycle_motorcycle"/>
    <trip id="motorcycle187" depart="221.03" from="-166429901" to="166311299" departLane="best" type="motorcycle_motorcycle" departSpeed="max"/>
    <trip id="motorcycle188" depart="222.21" from="-1266044488#1" to="166913141" departLane="best" type="motorcycle_motorcycle" departSpeed="max"/>
    <trip id="motorcycle189" depart="223.39" from="-119276362" to="-1183389476#2" departLane="best" type="motorcycle_motorcycle" departSpeed="max"/>
    <trip id="motorcycle190" depart="224.57" from="-166311150" to="118915964#1" departLane="best" type="motorcycle_motorcycle" departSpeed="max"/>
    <trip id="motorcycle191" depart="225.75" from="-166311299" to="967521130#1" departLane="best" type="motorcycle_motorcycle" departSpeed="max"/>
    <trip id="motorcycle192" depart="226.94" from="1266044488#0" to="1156915072#2" departLane="best" type="motorcycle_motorcycle" departSpeed="max"/>
    <trip id="motorcycle193" depart="228.12" from="-1456657573" to="1192334609#1" departLane="best" type="motorcycle_motorcycle" departSpeed="max"/>
    <trip id="motorcycle194" depart="229.30" from="108179183#2" to="566514591#4" departLane="best" type="motorcycle_motorcycle"/>
    <trip id="motorcycle195" depart="230.48" from="1125912916#3" to="538133754#1" departLane="best" type="motorcycle_motorcycle"/>
    <trip id="motorcycle196" depart="231.66" from="-954556415" to="166431115" departLane="best" type="motorcycle_motorcycle" departSpeed="max"/>
    <trip id="motorcycle197" depart="232.85" from="-566514591#4" to="967736095" departLane="best" type="motorcycle_motorcycle" departSpeed="max"/>
    <trip id="motorcycle198" depart="234.03" from="-1266044488#1" to="-118915966#1" departLane="best" type="motorcycle_motorcycle" departSpeed="max"/>
    <trip id="motorcycle199" depart="235.21" from="35923599#0" to="89864437#2" departLane="best" type="motorcycle_motorcycle" departSpeed="max"/>
    <trip id="motorcycle200" depart="236.39" from="-118915928#1" to="166334986" departLane="best" type="motorcycle_motorcycle" departSpeed="max"/>