<?xml version="1.0" encoding="UTF-8"?>

<!-- generated on 2026-01-21 21:35:33.271929 by Eclipse SUMO osmWebWizard.py v1.25.0
<configuration>
    <net-file value="/home/hoeman/Sumo/2026-01-21-21-35-18/osm.net.xml.gz"/>
    <output-trip-file value="/home/hoeman/Sumo/2026-01-21-21-35-18/osm.pedestrian.trips.xml"/>
    <route-file value="/home/hoeman/Sumo/2026-01-21-21-35-18/osm.pedestrian.rou.xml"/>
    <pedestrians value="True"/>
    <prefix value="ped"/>
    <vehicle-class value="pedestrian"/>
    <fringe-factor value="1"/>
    <seed value="45"/>
    <max-distance value="2000.0"/>
    <insertion-density value="10.0"/>
</configuration>
-->

<!-- generated on 2026-01-21T21:35:33.138149+07:00 by Eclipse SUMO duarouter v1_25_0+0904-59bbc76848e
<duarouterConfiguration xmlns:xsi="http://www.w3.org/2001/XMLSchema-instance" xsi:noNamespaceSchemaLocation="http://sumo.dlr.de/xsd/duarouterConfiguration.xsd">

    <input>
        <net-file value="/home/hoeman/Sumo/2026-01-21-21-35-18/osm.net.xml.gz"/>
        <route-files value="/home/hoeman/Sumo/2026-01-21-21-35-18/osm.pedestrian.trips.xml"/>
    </input>

    <output>
        <output-file value="/home/hoeman/Sumo/2026-01-21-21-35-18/osm.pedestrian.rou.xml"/>
        <alternatives-output value="NUL"/>
    </output>

    <time>
        <begin value="0.0"/>
        <end value="3600.0"/>
    </time>

    <report>
        <no-warnings value="true"/>
        <ignore-errors value="true"/>
        <no-step-log value="true"/>
    </report>

</duarouterConfiguration>
-->

<routes xmlns:xsi="http://www.w3.org/2001/XMLSchema-instance" xsi:noNamespaceSchemaLocation="http://sumo.dlr.de/xsd/routes_file.xsd">
    <vType id="ped_pedestrian" vClass="pedestrian"/>
    <person id="ped0" type="ped_pedestrian" depart="0.00">
        <walk edges="-630094488#0 -630094488#1 -630094488#2 -630094488#3 -165791775#1 -165791775#0 175724486#4 1060989496#4 -1060989496#3 -1060989496#2 -1060989496#1 -1060989496#0 -1060989495#0 -1060989495#1 -1190968366#0 -1190968366#1 -1190968366#2 -1190968366#3 -1190968366#4 -1190968366#5 -1220241543#3 -1220241543#2 -1220241543#1 -1220241543#0 1061007736#0"/>
    </person>
    <person id="ped1" type="ped_pedestrian" depart="8.40">
        <walk edges="-1220241543#2 223368837"/>
    </person>
    <person id="ped2" type="ped_pedestrian" depart="16.81">
        <walk edges="168385063#2 -168385063#1 -168385063#0 -954538898#0 -1060989493#0 -1060989493#1 -165792239#2 954542722"/>
    </person>
    <person id="ped3" type="ped_pedestrian" depart="25.21">
        <walk edges="-119276349#12 -168385064 -119276349#4 -119276349#3 -119276349#2 -119276349#1"/>
    </person>
    <person id="ped4" type="ped_pedestrian" depart="33.61">
        <walk edges="-1050341200 -119276349#3 -168385075 -1060989493#4 -1060989493#3 -1060989493#2 -165792239#2 -165792239#1 -165792239#0 -1060989495#0 -1060989495#1 -1061007736#9 -1061007736#8 1061007736#7"/>
    </person>
    <person id="ped5" type="ped_pedestrian" depart="42.02">
        <walk edges="-1190968366#4 -1190968366#3 -1190968366#2 -1190968366#1 -1190968366#0 -1060989495#1 -1060989495#0 -165792239#0 -165792239#1 -165792239#2 -1060989493#1 -1060989493#0 -954538898#0 -168385063#0 -168385063#1 -168385063#2 -954539127#0"/>
    </person>
    <person id="ped6" type="ped_pedestrian" depart="50.42">
        <walk edges="-1061007736#0 -1220241543#0 -1220241543#1 -1220241543#2 -1220241543#3 -1190968366#5 -1190968366#4 -1190968366#3 -1190968366#2 -1190968366#1 -1190968366#0 -1060989495#1 -1060989495#0 -165792239#0 -165792239#1 -165792239#2 -1060989493#1 -1060989493#0 -954538898#0 -954538898#1 -954538898#2 -954538898#3 -954538898#4 -954538898#5 954538897"/>
    </person>
    <person id="ped7" type="ped_pedestrian" depart="58.82">
        <walk edges="-119276349#7 -119276349#6 119276349#5 -119276349#4 -119276349#3 -168385075 -1060989493#5 -1060989493#7 -1060989493#8 -175724482#2 -175724482#1 -175724482#0 175724486#2 175724486#1 1060989496#4 1225401895"/>
    </person>
    <person id="ped8" type="ped_pedestrian" depart="67.23">
        <walk edges="-119276349#2 -168385075 -1060989493#4 -1060989493#3 -1060989493#2 -165792239#2 -165792239#1 -165792239#0 -1060989495#0 -1060989495#1 -1190968366#0 -1190968366#1 -1190968366#2 -1190968366#3 -1190968366#4 -1190968366#5 1220241543#3"/>
    </person>
    <person id="ped9" type="ped_pedestrian" depart="75.63">
        <walk edges="-1061341066 -1061341067#1 1061341067#0 -954538898#5 -954538898#4 -954538898#3 -954538898#2 -954538898#1 -954538898#0 -1060989493#0 -1060989493#1 -165792239#2 -165792239#1 -165792239#0 -1060989495#0 -1060989495#1 -1190968366#0 -1190968366#1 -1190968366#2 -1190968366#3 -1190968366#4 -1190968366#5 -1220241543#3 -1220241543#2 -1220241543#1"/>
    </person>
    <person id="ped10" type="ped_pedestrian" depart="84.03">
        <walk edges="-954542722 -165792239#2 -1060989493#1 -1060989493#0 -954538898#0 -954538898#1 -954538898#2 -954538898#3 -1460427195 1220198571#1"/>
    </person>
    <person id="ped11" type="ped_pedestrian" depart="92.44">
        <walk edges="165792241#0 -165792239#1 -165792239#2 -1060989493#2 1050339283"/>
    </person>
    <person id="ped12" type="ped_pedestrian" depart="100.84">
        <walk edges="-175724482#2 -175724482#1 -175724482#0 175724486#2 175724486#1 -1060989496#4"/>
    </person>
    <person id="ped13" type="ped_pedestrian" depart="109.24">
        <walk edges="630092925#2 1218401979#0 -968947261 -1060989493#9 -1060989493#8 -1060989493#7 -1060989493#5 -1060989493#4 -1060989493#3 -1060989493#2 -1060989493#1 -1060989493#0 -954538898#0 -954538898#1 -954538898#2 -954538898#3"/>
    </person>
    <person id="ped14" type="ped_pedestrian" depart="117.65">
        <walk edges="968947260#0 -630094488#1 -630094488#0 -1060989494#2 -1060989494#1 -1060989494#0 -1060989493#9 -1060989493#8 -1060989493#7 -1060989493#5 -1060989493#4 1060989493#3"/>
    </person>
    <person id="ped15" type="ped_pedestrian" depart="126.05">
        <walk edges="-954539127#0 -168385063#2 -168385063#1 -168385063#0 -954538898#0 -1060989493#0 -1060989493#1 -1060989493#2 -1060989493#3 -1060989493#4 -1060989493#5 -1060989493#7 -1060989493#8 -175724482#2 -175724482#1 -175724482#0 175724486#2 175724486#1 1060989496#4 -1060989496#3 543243609"/>
    </person>
    <person id="ped16" type="ped_pedestrian" depart="134.45">
        <walk edges="-170055410#1 954812577#2 -954812577#1 -954812577#0 -954812579#1"/>
    </person>
    <person id="ped17" type="ped_pedestrian" depart="142.86">
        <walk edges="-954538898#4 -954538898#3 -954538898#2 -954538898#1 -954538898#0 -1060989493#0"/>
    </person>
    <person id="ped18" type="ped_pedestrian" depart="151.26">
        <walk edges="-1218182445#0 -1218182444#0 119276349#5 119276349#4"/>
    </person>
    <person id="ped19" type="ped_pedestrian" depart="159.67">
        <walk edges="630093166 -165791775#1 -165791775#0 175724486#4 -1060989496#4"/>
    </person>
    <person id="ped20" type="ped_pedestrian" depart="168.07">
        <walk edges="1061007736#9 -1060989495#1 -1060989495#0 -1060989496#0 -1060989496#1 -1060989496#2 -1060989496#3 1060989496#4 175724486#4 -165791775#0 -165791775#1 -630093166"/>
    </person>
    <person id="ped21" type="ped_pedestrian" depart="176.47">
        <walk edges="119276349#2 -168385075 -1060989493#4 -1060989493#3 -1060989493#2 -165792239#2 -165792239#1 -165792239#0 -1060989495#0 -1060989495#1 -1061007736#9 -1061007736#8 -1061007736#7 -1061007736#6 -1061007736#5 -1061007736#4 -223368844"/>
    </person>
    <person id="ped22" type="ped_pedestrian" depart="184.88">
        <walk edges="1060989493#5 -1060989493#7 954541340 -119276358#2 -119276358#1 -119276358#0"/>
    </person>
    <person id="ped23" type="ped_pedestrian" depart="193.28">
        <walk edges="-967724860 -1061341067#1 1061341067#0 -954538898#5 -954538898#4 -954538898#3 -954538898#2 -954538898#1 -954538898#0 -1060989493#0 -1060989493#1 -165792239#2 -165792239#1 -165792241#0 -165792241#1"/>
    </person>
    <person id="ped24" type="ped_pedestrian" depart="201.68">
        <walk edges="-1218182444#0 119276349#5 -119276349#4 -119276349#3 -168385075 -1060989493#5 -1060989493#7 -1060989493#8 -1060989493#9 -1060989494#0 -1060989494#1 -1060989494#2 -630094488#0 -968947259 -968947260#1 968947255"/>
    </person>
    <person id="ped25" type="ped_pedestrian" depart="210.09">
        <walk edges="1225401895 1060989496#4 175724486#1 175724486#2 -175724482#0 -175724482#1 -175724482#2 -1060989493#8 -1060989493#7 -1060989493#5 -1060989493#4 -1060989493#3 -1060989493#2"/>
    </person>
    <person id="ped26" type="ped_pedestrian" depart="218.49">
        <walk edges="-1060989494#3 -1060989494#2 -1060989494#1 -1060989494#0 -968947261 630092925#2"/>
    </person>
    <person id="ped27" type="ped_pedestrian" depart="226.89">
        <walk edges="119276349#9 119276349#10 -119276349#11 -119276349#12 -168385063#1 -168385063#0 -954538898#0 -1060989493#0 -1060989493#1 -165792239#2 -165792239#1 -165792239#0 -1060989496#0"/>
    </person>
    <person id="ped28" type="ped_pedestrian" depart="235.30">
        <walk edges="165792241#0 -165792239#0 -1060989495#0 -1060989495#1 -1190968366#0 -1190968366#1 -1190968366#2 -1190968366#3 -1190968366#4 -1190968366#5 -1220241543#3 -1220241543#2 1220241543#1"/>
    </person>
    <person id="ped29" type="ped_pedestrian" depart="243.70">
        <walk edges="543243609 -1060989496#3 1060989496#4 175724486#4 -165791775#0 -165791775#1 630094488#3"/>
    </person>
    <person id="ped30" type="ped_pedestrian" depart="252.10">
        <walk edges="-119276349#2 -119276349#3 -119276349#4 119276349#5 -1218182444#0 -1218182444#1"/>
    </person>
    <person id="ped31" type="ped_pedestrian" depart="260.51">
        <walk edges="-1060989493#1 -1060989493#0 -954538898#0 -168385063#0 -168385063#1 -119276349#12 119276349#11"/>
    </person>
    <person id="ped32" type="ped_pedestrian" depart="268.91">
        <walk edges="-1060989491 -954538898#1 -954538898#0 -1060989493#0 -1060989493#1 -1060989493#2 -1060989493#3 -1060989493#4 -1060989493#5 -1060989493#7 -1060989493#8 -1060989493#9 -1060989494#0 -1060989494#1 -1060989494#2 -1060989494#3"/>
    </person>
    <person id="ped33" type="ped_pedestrian" depart="277.31">
        <walk edges="-165792239#0 -165792241#0 -165792241#1 175724486#2 175724486#3 -165791775#0 -165791775#1 -630094488#3 455038123"/>
    </person>
    <person id="ped34" type="ped_pedestrian" depart="285.72">
        <walk edges="1060989493#0 -1060989493#1 -165792239#2 -165792239#1 -165792239#0 -1060989495#0 -1060989495#1 -1061007736#9 -1061007736#8 -1061007736#7 -1061007736#6 -1061007736#5 -1061007736#4 1061007736#3"/>
    </person>
    <person id="ped35" type="ped_pedestrian" depart="294.12">
        <walk edges="954538898#4 -954538898#3 -954538898#2 -954538898#1 -954538898#0 -1060989493#0 -1060989493#1 -165792239#2 -165792239#1 -165792241#0 -165792241#1"/>
    </person>
    <person id="ped36" type="ped_pedestrian" depart="302.52">
        <walk edges="-630094488#1 -630094488#2 -630094488#3 -165791775#1 -165791775#0 175724486#4 1060989496#4 -1060989496#3 -1060989496#2 -1060989496#1 -1060989496#0 -1060989495#0 -1060989495#1 -1190968366#0 -1190968366#1 -1190968366#2 -1190968366#3 -1190968366#4"/>
    </person>
    <person id="ped37" type="ped_pedestrian" depart="310.93">
        <walk edges="1050339285 -630093165#0 954541340 -1060989493#7 -1060989493#5 -1060989493#4 -1060989493#3 -1060989493#2 -165792239#2 -165792239#1 -165792239#0 -1060989495#0 -1060989495#1 -1061007736#9 -1061007736#8 -1061007736#7 -223368843"/>
    </person>
    <person id="ped38" type="ped_pedestrian" depart="319.33">
        <walk edges="-968947261 -1060989493#9 -175724482#2 -175724482#1 -175724482#0 175724486#2 -165792241#1 -165792241#0"/>
    </person>
    <person id="ped39" type="ped_pedestrian" depart="327.73">
        <walk edges="-1220198577 1220198577 -1060989493#3 -1060989493#2 -165792239#2 -165792239#1 -165792239#0 -1060989495#0 -1060989495#1 -1061007736#9 -1061007736#8 -1061007736#7 -1061007736#6 -1061007736#5 -1061007736#4 -1061007736#3 223368837"/>
    </person>
    <person id="ped40" type="ped_pedestrian" depart="336.14">
        <walk edges="165792239#1 -165792241#0 -165792241#1 175724486#2 175724482#0"/>
    </person>
    <person id="ped41" type="ped_pedestrian" depart="344.54">
        <walk edges="1218182441 119276349#10 -119276349#11 -119276349#12 -168385063#1 -168385063#0 -954538898#0 -1060989493#0 -1060989493#1 -165792239#2 -165792239#1 -165792239#0 -1060989495#0 -1060989495#1 -1061007736#9 -1061007736#8 -1061007736#7 -1061007736#6 -1061007736#5 -1061007736#4 -1061007736#3 -1061007736#2 -223368834"/>
    </person>
    <person id="ped42" type="ped_pedestrian" depart="352.94">
        <walk edges="1220241543#2 -1220241543#3 -1190968366#5 -1190968366#4 -1190968366#3 -1190968366#2 -1190968366#1 -1190968366#0 -1060989495#1 -1060989495#0 -165792239#0 -165792239#1 -165792239#2 -1060989493#2 -1060989493#3 -1060989493#4 -1060989493#5 -1060989493#7 -1060989493#8 -1060989493#9 -1060989494#0 -1060989494#1 1060989494#2"/>
    </person>
    <person id="ped43" type="ped_pedestrian" depart="361.35">
        <walk edges="954538898#2 -954538898#1 954538898#0"/>
    </person>
    <person id="ped44" type="ped_pedestrian" depart="369.75">
        <walk edges="954538898#0 -1060989493#0 -1060989493#1 -1060989493#2 -1060989493#3 -1060989493#4 -1060989493#5 -1060989493#7 -1060989493#8 -1060989493#9 -1060989494#0 -1060989494#1 -1060989494#2 -630094488#0 -630094488#1 -630094488#2 455038123"/>
    </person>
    <person id="ped45" type="ped_pedestrian" depart="378.15">
        <walk edges="-165792239#1 -165792239#2 -1060989493#2 -1060989493#3 -1060989493#4 -1060989493#5 -1060989493#7 -1060989493#8 -1060989493#9 -1060989494#0 455034515#0 1229080356#1 1229080356#0"/>
    </person>
    <person id="ped46" type="ped_pedestrian" depart="386.56">
        <walk edges="-954538898#3 -954538898#2 -954538898#1 -954538898#0 -1060989493#0 -1060989493#1 -1060989493#2 -1060989493#3 -1060989493#4 -1060989493#5 -1060989493#7 -1060989493#8 -175724482#2 -175724482#1 -175724482#0 175724486#3 165791775#0"/>
    </person>
    <person id="ped47" type="ped_pedestrian" depart="394.96">
        <walk edges="89626431 -89626464#3 -89626403#0 -165792241#0 -165792239#1 165792239#2"/>
    </person>
    <person id="ped48" type="ped_pedestrian" depart="403.36">
        <walk edges="1061007736#8 -1061007736#9 -1060989495#1 -1060989495#0 -165792239#0 -165792239#1 -165792239#2 -1060989493#2 -1060989493#3 -1060989493#4 -1060989493#5 -1060989493#7 1060989493#8"/>
    </person>
    <person id="ped49" type="ped_pedestrian" depart="411.77">
        <walk edges="1061007736#1 -1220241543#0 -1220241543#1 -1220241543#2 -1220241543#3 -1190968366#5 -1190968366#4 -1190968366#3 -1190968366#2 -1190968366#1 -1190968366#0 -1060989495#1 -1060989495#0 -165792239#0 -165792239#1 -165792239#2 -1060989493#2 -1060989493#3 -1060989493#4 -168385075 -119276349#3 -119276349#4 -119276349#5"/>
    </person>
    <person id="ped50" type="ped_pedestrian" depart="420.17">
        <walk edges="630092925#1 -968947261 -1060989493#9 -1060989493#8 -1060989493#7 -1060989493#5 -168385075 -119276349#3 -119276349#4 119276349#5 -119276349#6 119276349#7"/>
    </person>
    <person id="ped51" type="ped_pedestrian" depart="428.57">
        <walk edges="-1220241543#2 -1220241543#3"/>
    </person>
    <person id="ped52" type="ped_pedestrian" depart="436.98">
        <walk edges="1061341067#0 -954538898#5 -954538898#4 -954538898#3 -954538898#2 -954538898#1 -954538898#0 -1060989493#0 -1060989493#1 -165792239#2 -165792239#1 -165792239#0 -1060989495#0 -1060989495#1 -1061007736#9 -1061007736#8 -1061007736#7 1061007736#6"/>
    </person>
    <person id="ped53" type="ped_pedestrian" depart="445.38">
        <walk edges="119276349#8 1218182446"/>
    </person>
    <person id="ped54" type="ped_pedestrian" depart="453.79">
        <walk edges="968947261 -1060989493#9 -1060989493#8 -1060989493#7 -1060989493#5 -1060989493#4 -1060989493#3 -1060989493#2 -165792239#2 -165792239#1 -165792239#0 -1060989495#0 -1060989495#1 -1190968366#0 1190968366#1"/>
    </person>
    <person id="ped55" type="ped_pedestrian" depart="462.19">
        <walk edges="455034515#0 -1060989494#0 -1060989493#9 -1060989493#8 -1060989493#7 -1060989493#5 -1060989493#4 -1060989493#3 -1060989493#2 -1060989493#1 -1060989493#0 -954538898#0 -168385063#0 -168385063#1 119276349#12"/>
    </person>
    <person id="ped56" type="ped_pedestrian" depart="470.59">
        <walk edges="-1060989496#3 1060989496#4 175724486#1 175724486#2 -175724482#0 -175724482#1 -175724482#2 -1060989493#8 954541340 630093165#0"/>
    </person>
    <person id="ped57" type="ped_pedestrian" depart="479.00">
        <walk edges="-954538898#1 -954538898#0 -1060989493#0 -1060989493#1 -1060989493#2 -1060989493#3 -1060989493#4 -1060989493#5 -1060989493#7 -1060989493#8 -1060989493#9 -1060989494#0 -1060989494#1 -1060989494#2 -630094488#0 -630094488#1 968947260#0"/>
    </person>
    <person id="ped58" type="ped_pedestrian" depart="487.40">
        <walk edges="-170055410#2 -170055410#1 954812577#2 -954812578 954812579#4"/>
    </person>
    <person id="ped59" type="ped_pedestrian" depart="495.80">
        <walk edges="1220241543#3 -1220241543#2 -1220241543#1 -1220241543#0 -1061007736#0"/>
    </person>
    <person id="ped60" type="ped_pedestrian" depart="504.21">
        <walk edges="119276349#12 -119276349#11 119276349#10 -119276349#9 -1218182446"/>
    </person>
    <person id="ped61" type="ped_pedestrian" depart="512.61">
        <walk edges="-1190968366#2 464214072"/>
    </person>
    <person id="ped62" type="ped_pedestrian" depart="521.01">
        <walk edges="1456657582#2 1456657580#9 1456657580#8 1456657580#7"/>
    </person>
    <person id="ped63" type="ped_pedestrian" depart="529.42">
        <walk edges="165791775#1 -455034521#1 -455034521#0 -175724482#1 -175724482#2 -1060989493#8 -1060989493#7 -1060989493#5 -1060989493#4 1060989493#3"/>
    </person>
    <person id="ped64" type="ped_pedestrian" depart="537.82">
        <walk edges="-223368837 -1061007736#3 -1061007736#4 -1061007736#5 -1061007736#6 -1061007736#7 -1061007736#8 -1061007736#9 -1060989495#1 -1060989495#0 -165792239#0 -165792239#1 -165792239#2 -1060989493#2 -1060989493#3 -1060989493#4 -168385075 -119276349#3 119276349#4"/>
    </person>
    <person id="ped65" type="ped_pedestrian" depart="546.22">
        <walk edges="223368840 1061007736#5"/>
    </person>
    <person id="ped66" type="ped_pedestrian" depart="554.63">
        <walk edges="1190968366#3 -1190968366#2 -1190968366#1 -1190968366#0 -1060989495#1 -1060989495#0 -165792239#0 -165792239#1 -165792239#2 -1060989493#2 -1060989493#3 -1060989493#4 -1060989493#5 -1060989493#7 -1060989493#8 -1060989493#9 -1060989494#0 455034515#0 1229080356#1 -455034515#2"/>
    </person>
    <person id="ped67" type="ped_pedestrian" depart="563.03">
        <walk edges="-1060989494#1 -1060989494#0 -1060989493#9 -175724482#2 -175724482#1 -175724482#0 175724486#2 175724486#1 1060989496#4 -1060989496#3 543243609"/>
    </person>
    <person id="ped68" type="ped_pedestrian" depart="571.43">
        <walk edges="954538897 -954538898#5 -954538898#4 -954538898#3 -954538898#2 -954538898#1 -954538898#0 -1060989493#0"/>
    </person>
    <person id="ped69" type="ped_pedestrian" depart="579.84">
        <walk edges="-223368840 -1061007736#6 -1061007736#7 -1061007736#8 -1061007736#9 -1060989495#1 -1060989495#0 -165792239#0 -165792239#1 -165792239#2 -1060989493#2 -1060989493#3 -1060989493#4 -1060989493#5 455048121"/>
    </person>
    <person id="ped70" type="ped_pedestrian" depart="588.24">
        <walk edges="-223368834 -1061007736#2 -1061007736#3 -1061007736#4 -1061007736#5 223368840"/>
    </person>
    <person id="ped71" type="ped_pedestrian" depart="596.64">
        <walk edges="-464214072 -1061007736#9 -1060989495#1 -1060989495#0 -165792239#0 -165792239#1 -165792239#2 -1060989493#1 -1060989493#0 -954538898#0 -954538898#1 -954538898#2 -954538898#3 -954538898#4 -954538898#5 1061341067#0"/>
    </person>
    <person id="ped72" type="ped_pedestrian" depart="605.05">
        <walk edges="-89864425#3 89864425#2"/>
    </person>
    <person id="ped73" type="ped_pedestrian" depart="613.45">
        <walk edges="1060989495#1 -1060989495#0 -165792239#0 -165792239#1 -165792239#2 -1060989493#1 -1060989493#0 -954538898#0 -954538898#1 -954538898#2 -954538898#3 -954538898#4 -954538898#5 -1061341067#0"/>
    </person>
    <person id="ped74" type="ped_pedestrian" depart="621.85">
        <walk edges="-1060989496#1 -1060989496#2 -1060989496#3 1060989496#4 175724486#4 -165791775#0 -165791775#1 -630094488#3 -630094488#2 -968947260#0 -968947255"/>
    </person>
    <person id="ped75" type="ped_pedestrian" depart="630.26">
        <walk edges="630092925#1 -968947261 -1060989493#9 -175724482#2 175724482#1"/>
    </person>
    <person id="ped76" type="ped_pedestrian" depart="638.66">
        <walk edges="1218401979#1 1218401979#0 -968947261 -1060989493#9 -1060989493#8 -1060989493#7 -1060989493#5 -1060989493#4 -1060989493#3 -1060989493#2 -165792239#2 -165792239#1 -165792239#0 -1060989495#0 -1060989495#1 -1061007736#9 -1061007736#8 -1061007736#7 -1061007736#6 -1061007736#5 -1061007736#4 -1061007736#3"/>
    </person>
    <person id="ped77" type="ped_pedestrian" depart="647.06">
        <walk edges="455048121 -1060989493#5 -168385075 -119276349#3 -119276349#4 119276349#5 -1218182444#0 -1218182444#1"/>
    </person>
    <person id="ped78" type="ped_pedestrian" depart="655.47">
        <walk edges="-1218182445#0 -1218182444#0 119276349#5 -119276349#4 -119276349#3 -168385075 -1060989493#4 -1060989493#3 -1060989493#2 -165792239#2 -165792239#1 -165792239#0 -1060989495#0 -1060989495#1 -1061007736#9 -1061007736#8 -1061007736#7 -1061007736#6 -1061007736#5 223368838"/>
    </person>
    <person id="ped79" type="ped_pedestrian" depart="663.87">
        <walk edges="455034516#0 -175724482#2 -1060989493#8 -1060989493#7 -1060989493#5 -1060989493#4 -1060989493#3 -1060989493#2 -1060989493#1 -1060989493#0 -954538898#0 -954538898#1 -954538898#2 -954538898#3 -954538898#4 -954538898#5 954538897"/>
    </person>
    <person id="ped80" type="ped_pedestrian" depart="672.27">
        <walk edges="-119276349#8 119276349#7 -1218182445#1 -1218182445#0"/>
    </person>
    <person id="ped81" type="ped_pedestrian" depart="680.68">
        <walk edges="-1060989493#3 -1060989493#2 -1060989493#1 -1060989493#0 954538898#0"/>
    </person>
    <person id="ped82" type="ped_pedestrian" depart="689.08">
        <walk edges="-168385063#1 -168385063#0 -954538898#0 -1060989493#0 -1060989493#1 -165792239#2 -165792239#1 -165792239#0 -1060989495#0 -1060989495#1 -1190968366#0 -1190968366#1 -1190968366#2 -1190968366#3 -1190968366#4 -1190968366#5 -1220241543#3 1220241543#2"/>
    </person>
    <person id="ped83" type="ped_pedestrian" depart="697.48">
        <walk edges="119276349#8 119276349#7 -119276349#6 119276349#5 -119276349#4 -119276349#3 -168385075 -1060989493#5 1060989493#7"/>
    </person>
    <person id="ped84" type="ped_pedestrian" depart="705.89">
        <walk edges="-119276349#10 -119276349#11 -119276349#12 -168385063#1 -168385063#0 -954538898#0 -1060989493#0 -1060989493#1 -1060989493#2 1060989493#3"/>
    </person>
    <person id="ped85" type="ped_pedestrian" depart="714.29">
        <walk edges="-1190968366#0 -1061007736#9 -1061007736#8 -1061007736#7 -1061007736#6 -1061007736#5 -1061007736#4 -1061007736#3"/>
    </person>
    <person id="ped86" type="ped_pedestrian" depart="722.69">
        <walk edges="-168385064 -119276349#4 -119276349#3 -168385075 -1060989493#4 -1060989493#3 -1060989493#2 -165792239#2 -165792239#1 -165792239#0 -1060989495#0 -1060989495#1 -1190968366#0 1190968366#1"/>
    </person>
    <person id="ped87" type="ped_pedestrian" depart="731.10">
        <walk edges="1218182444#0 119276349#5 -119276349#4 -119276349#3 -119276349#2 -119276349#1 -119276358#2 -119276358#1"/>
    </person>
    <person id="ped88" type="ped_pedestrian" depart="739.50">
        <walk edges="-1060989493#0 -954538898#0 -168385063#0 -168385063#1 -168385063#2 -455035293"/>
    </person>
    <person id="ped89" type="ped_pedestrian" depart="747.91">
        <walk edges="-1218182445#0 -1218182444#0 119276349#5 -119276349#4 -119276349#3 -168385075 -1060989493#5 -1060989493#7 -1060989493#8 -175724482#2 -175724482#1 -175724482#0 175724486#2 175724486#1 1060989496#4 -1060989496#3 543243609"/>
    </person>
    <person id="ped90" type="ped_pedestrian" depart="756.31">
        <walk edges="455034515#0 -1060989494#0 -1060989493#9 -1060989493#8 -1060989493#7 -1060989493#5 -1060989493#4 -1060989493#3 -1060989493#2 -165792239#2 -165792239#1 -165792239#0 -1060989495#0 -1060989495#1 -1061007736#9 -1061007736#8 -1061007736#7 -1061007736#6 -1061007736#5 -1061007736#4 -1061007736#3 1061007736#2"/>
    </person>
    <person id="ped91" type="ped_pedestrian" depart="764.71">
        <walk edges="-1220198577 1220198577 -1060989493#4 -1060989493#5 -1060989493#7 954541340"/>
    </person>
    <person id="ped92" type="ped_pedestrian" depart="773.12">
        <walk edges="1050341200 -119276349#3 -168385075 -1060989493#5 1060989493#7"/>
    </person>
    <person id="ped93" type="ped_pedestrian" depart="781.52">
        <walk edges="-119276349#3 -168385075 -1060989493#5 -1060989493#7 -1060989493#8 -1060989493#9 -1060989494#0 -1060989494#1 -1060989494#2 -630094488#0 -630094488#1 -630094488#2 455038123"/>
    </person>
    <person id="ped94" type="ped_pedestrian" depart="789.92">
        <walk edges="-1060989494#1 -1060989494#2 630094488#0"/>
    </person>
    <person id="ped95" type="ped_pedestrian" depart="798.33">
        <walk edges="954791549 -1060989493#0 -1060989493#1 -165792239#2 -165792239#1 -165792239#0 -1060989495#0 -1060989495#1 -1190968366#0 -1190968366#1 1190968366#2"/>
    </person>
    <person id="ped96" type="ped_pedestrian" depart="806.73">
        <walk edges="223368836 -1190968366#5 -1190968366#4 -1190968366#3 -1190968366#2 -1190968366#1 -1190968366#0 -1060989495#1 -1060989495#0 -165792239#0 -165792239#1 -165792239#2 -1060989493#1 -1060989493#0 -954538898#0 -954538898#1 1060989491"/>
    </person>
    <person id="ped97" type="ped_pedestrian" depart="815.13">
        <walk edges="1220241545 -1060989496#0 -1060989495#0 -1060989495#1 -1061007736#9 -1061007736#8 -1061007736#7 1061007736#6"/>
    </person>
    <person id="ped98" type="ped_pedestrian" depart="823.54">
        <walk edges="954538898#1 -954538898#0 -1060989493#0 -1060989493#1 -165792239#2 -165792239#1 -165792239#0 -1060989495#0 -1060989495#1 -1061007736#9"/>
    </person>
    <person id="ped99" type="ped_pedestrian" depart="831.94">
        <walk edges="696628304#1 -696628304#0 696628000#0 696627562#2"/>
    </person>
    <person id="ped100" type="ped_pedestrian" depart="840.34">
        <walk edges="-223368834 -1061007736#2 -1061007736#3 -1061007736#4 -1061007736#5 -1061007736#6 -1061007736#7 -1061007736#8 -1061007736#9 -1060989495#1 -1060989495#0 -165792239#0 -165792239#1 -165792239#2 -1060989493#2 -1060989493#3 -1060989493#4 -1060989493#5 -1060989493#7 -1060989493#8 -1060989493#9 -968947261 630092925#2"/>
    </person>
    <person id="ped101" type="ped_pedestrian" depart="848.75">
        <walk edges="-455034515#2 -1060989494#1 -1060989494#0 -1060989493#9 -1060989493#8 -1060989493#7 -1060989493#5 -1060989493#4 -1060989493#3 -1060989493#2 -1060989493#1 -1060989493#0 -954538898#0 -954538898#1 -954538898#2 -954538898#3 -954538898#4 -954538898#5 1061341067#0"/>
    </person>
    <person id="ped102" type="ped_pedestrian" depart="857.15">
        <walk edges="1220198577 -1060989493#3"/>
    </person>
    <person id="ped103" type="ped_pedestrian" depart="865.55">
        <walk edges="455034520 -455034521#0 -175724482#1 -175724482#2 -1060989493#8 -1060989493#7 -1060989493#5 -1060989493#4 -1060989493#3 -1060989493#2 -1060989493#1 -1060989493#0 -954538898#0 -954538898#1 -954538898#2 -954538898#3 -954538898#4 -954538898#5 -1061341067#0"/>
    </person>
    <person id="ped104" type="ped_pedestrian" depart="873.96">
        <walk edges="119276349#10 -119276349#9 119276349#8 119276349#7 -119276349#6"/>
    </person>
    <person id="ped105" type="ped_pedestrian" depart="882.36">
        <walk edges="-630094488#3 -165791775#1 -165791775#0 175724486#4 1060989496#4 -1060989496#3 -1060989496#2 -1060989496#1 -1060989496#0 -1060989495#0 -1060989495#1 -1061007736#9 -1061007736#8 -1061007736#7 -1061007736#6 -1061007736#5 -1061007736#4 -1061007736#3"/>
    </person>
    <person id="ped106" type="ped_pedestrian" depart="890.76">
        <walk edges="119276349#3 -168385075 -1060989493#5 -1060989493#7 -1060989493#8 -1060989493#9 -1060989494#0 -1060989494#1 -1060989494#2 -630094488#0 -630094488#1 -630094488#2 -630094488#3"/>
    </person>
    <person id="ped107" type="ped_pedestrian" depart="899.17">
        <walk edges="-223368840 -1061007736#6 223368843"/>
    </person>
    <person id="ped108" type="ped_pedestrian" depart="907.57">
        <walk edges="1190968366#3 223368843"/>
    </person>
    <person id="ped109" type="ped_pedestrian" depart="915.97">
        <walk edges="1060989496#0 -165792239#0 -165792239#1 -165792239#2 -1060989493#2 -1060989493#3 -1060989493#4 -1060989493#5 455037833#1"/>
    </person>
    <person id="ped110" type="ped_pedestrian" depart="924.38">
        <walk edges="-954538898#0 -1060989493#0 -1060989493#1 -1060989493#2 -1060989493#3 -1060989493#4 -1060989493#5 -455037833#1 455037832"/>
    </person>