<?xml version="1.0" encoding="UTF-8"?>

<!-- generated on 2026-01-21 21:35:32.927015 by Eclipse SUMO osmWebWizard.py v1.25.0
<configuration>
    <net-file value="/home/hoeman/Sumo/2026-01-21-21-35-18/osm.net.xml.gz"/>
    <output-trip-file value="/home/hoeman/Sumo/2026-01-21-21-35-18/osm.pedestrian.trips.xml"/>
    <route-file value="/home/hoeman/Sumo/2026-01-21-21-35-18/osm.pedestrian.rou.xml"/>
    <pedestrians value="True"/>
    <prefix value="ped"/>
    <vehicle-class value="pedestrian"/>
    <fringe-factor value="1"/>
    <seed value="45"/>
    <max-distance value="2000.0"/>
    <insertion-density value="10.0"/>
</configuration>
-->

<routes xmlns:xsi="http://www.w3.org/2001/XMLSchema-instance" xsi:noNamespaceSchemaLocation="http://sumo.dlr.de/xsd/routes_file.xsd">
    <vType id="ped_pedestrian" vClass="pedestrian"/>
    <person id="ped0" depart="0.00" type="ped_pedestrian">
        <walk from="-630094488#0" to="1061007736#0"/>
    </person>
    <person id="ped1" depart="8.40" type="ped_pedestrian">
        <walk from="-1220241543#2" to="223368837"/>
    </person>
    <person id="ped2" depart="16.81" type="ped_pedestrian">
        <walk from="168385063#2" to="954542722"/>
    </person>
    <person id="ped3" depart="25.21" type="ped_pedestrian">
        <walk from="-119276349#12" to="-119276349#1"/>
    </person>
    <person id="ped4" depart="33.61" type="ped_pedestrian">
        <walk from="-1050341200" to="1061007736#7"/>
    </person>
    <person id="ped5" depart="42.02" type="ped_pedestrian">
        <walk from="-1190968366#4" to="-954539127#0"/>
    </person>
    <person id="ped6" depart="50.42" type="ped_pedestrian">
        <walk from="-1061007736#0" to="954538897"/>
    </person>
    <person id="ped7" depart="58.82" type="ped_pedestrian">
        <walk from="-119276349#7" to="1225401895"/>
    </person>
    <person id="ped8" depart="67.23" type="ped_pedestrian">
        <walk from="-119276349#2" to="1220241543#3"/>
    </person>
    <person id="ped9" depart="75.63" type="ped_pedestrian">
        <walk from="-1061341066" to="-1220241543#1"/>
    </person>
    <person id="ped10" depart="84.03" type="ped_pedestrian">
        <walk from="-954542722" to="1220198571#1"/>
    </person>
    <person id="ped11" depart="92.44" type="ped_pedestrian">
        <walk from="165792241#0" to="1050339283"/>
    </person>
    <person id="ped12" depart="100.84" type="ped_pedestrian">
        <walk from="-175724482#2" to="-1060989496#4"/>
    </person>
    <person id="ped13" depart="109.24" type="ped_pedestrian">
        <walk from="630092925#2" to="-954538898#3"/>
    </person>
    <person id="ped14" depart="117.65" type="ped_pedestrian">
        <walk from="968947260#0" to="1060989493#3"/>
    </person>
    <person id="ped15" depart="126.05" type="ped_pedestrian">
        <walk from="-954539127#0" to="543243609"/>
    </person>
    <person id="ped16" depart="134.45" type="ped_pedestrian">
        <walk from="-170055410#1" to="-954812579#1"/>
    </person>
    <person id="ped17" depart="142.86" type="ped_pedestrian">
        <walk from="-954538898#4" to="-1060989493#0"/>
    </person>
    <person id="ped18" depart="151.26" type="ped_pedestrian">
        <walk from="-1218182445#0" to="119276349#4"/>
    </person>
    <person id="ped19" depart="159.67" type="ped_pedestrian">
        <walk from="630093166" to="-1060989496#4"/>
    </person>
    <person id="ped20" depart="168.07" type="ped_pedestrian">
        <walk from="1061007736#9" to="-630093166"/>
    </person>
    <person id="ped21" depart="176.47" type="ped_pedestrian">
        <walk from="119276349#2" to="-223368844"/>
    </person>
    <person id="ped22" depart="184.88" type="ped_pedestrian">
        <walk from="1060989493#5" to="-119276358#0"/>
    </person>
    <person id="ped23" depart="193.28" type="ped_pedestrian">
        <walk from="-967724860" to="-165792241#1"/>
    </person>
    <person id="ped24" depart="201.68" type="ped_pedestrian">
        <walk from="-1218182444#0" to="968947255"/>
    </person>
    <person id="ped25" depart="210.09" type="ped_pedestrian">
        <walk from="1225401895" to="-1060989493#2"/>
    </person>
    <person id="ped26" depart="218.49" type="ped_pedestrian">
        <walk from="-1060989494#3" to="630092925#2"/>
    </person>
    <person id="ped27" depart="226.89" type="ped_pedestrian">
        <walk from="119276349#9" to="-1060989496#0"/>
    </person>
    <person id="ped28" depart="235.30" type="ped_pedestrian">
        <walk from="165792241#0" to="1220241543#1"/>
    </person>
    <person id="ped29" depart="243.70" type="ped_pedestrian">
        <walk from="543243609" to="630094488#3"/>
    </person>
    <person id="ped30" depart="252.10" type="ped_pedestrian">
        <walk from="-119276349#2" to="-1218182444#1"/>
    </person>
    <person id="ped31" depart="260.51" type="ped_pedestrian">
        <walk from="-1060989493#1" to="119276349#11"/>
    </person>
    <person id="ped32" depart="268.91" type="ped_pedestrian">
        <walk from="-1060989491" to="-1060989494#3"/>
    </person>
    <person id="ped33" depart="277.31" type="ped_pedestrian">
        <walk from="-165792239#0" to="455038123"/>
    </person>
    <person id="ped34" depart="285.72" type="ped_pedestrian">
        <walk from="1060989493#0" to="1061007736#3"/>
    </person>
    <person id="ped35" depart="294.12" type="ped_pedestrian">
        <walk from="954538898#4" to="-165792241#1"/>
    </person>
    <person id="ped36" depart="302.52" type="ped_pedestrian">
        <walk from="-630094488#1" to="-1190968366#4"/>
    </person>
    <person id="ped37" depart="310.93" type="ped_pedestrian">
        <walk from="1050339285" to="-223368843"/>
    </person>
    <person id="ped38" depart="319.33" type="ped_pedestrian">
        <walk from="-968947261" to="-165792241#0"/>
    </person>
    <person id="ped39" depart="327.73" type="ped_pedestrian">
        <walk from="-1220198577" to="223368837"/>
    </person>
    <person id="ped40" depart="336.14" type="ped_pedestrian">
        <walk from="165792239#1" to="175724482#0"/>
    </person>
    <person id="ped41" depart="344.54" type="ped_pedestrian">
        <walk from="1218182441" to="-223368834"/>
    </person>
    <person id="ped42" depart="352.94" type="ped_pedestrian">
        <walk from="1220241543#2" to="1060989494#2"/>
    </person>
    <person id="ped43" depart="361.35" type="ped_pedestrian">
        <walk from="954538898#2" to="954538898#0"/>
    </person>
    <person id="ped44" depart="369.75" type="ped_pedestrian">
        <walk from="954538898#0" to="455038123"/>
    </person>
    <person id="ped45" depart="378.15" type="ped_pedestrian">
        <walk from="-165792239#1" to="1229080356#0"/>
    </person>
    <person id="ped46" depart="386.56" type="ped_pedestrian">
        <walk from="-954538898#3" to="165791775#0"/>
    </person>
    <person id="ped47" depart="394.96" type="ped_pedestrian">
        <walk from="89626431" to="165792239#2"/>
    </person>
    <person id="ped48" depart="403.36" type="ped_pedestrian">
        <walk from="1061007736#8" to="1060989493#8"/>
    </person>
    <person id="ped49" depart="411.77" type="ped_pedestrian">
        <walk from="1061007736#1" to="-119276349#5"/>
    </person>
    <person id="ped50" depart="420.17" type="ped_pedestrian">
        <walk from="630092925#1" to="119276349#7"/>
    </person>
    <person id="ped51" depart="428.57" type="ped_pedestrian">
        <walk from="-1220241543#2" to="-1220241543#3"/>
    </person>
    <person id="ped52" depart="436.98" type="ped_pedestrian">
        <walk from="1061341067#0" to="1061007736#6"/>
    </person>
    <person id="ped53" depart="445.38" type="ped_pedestrian">
        <walk from="119276349#8" to="1218182446"/>
    </person>
    <person id="ped54" depart="453.79" type="ped_pedestrian">
        <walk from="968947261" to="1190968366#1"/>
    </person>
    <person id="ped55" depart="462.19" type="ped_pedestrian">
        <walk from="455034515#0" to="119276349#12"/>
    </person>
    <person id="ped56" depart="470.59" type="ped_pedestrian">
        <walk from="-1060989496#3" to="630093165#0"/>
    </person>
    <person id="ped57" depart="479.00" type="ped_pedestrian">
        <walk from="-954538898#1" to="968947260#0"/>
    </person>
    <person id="ped58" depart="487.40" type="ped_pedestrian">
        <walk from="-170055410#2" to="954812579#4"/>
    </person>
    <person id="ped59" depart="495.80" type="ped_pedestrian">
        <walk from="1220241543#3" to="-1061007736#0"/>
    </person>
    <person id="ped60" depart="504.21" type="ped_pedestrian">
        <walk from="119276349#12" to="-1218182446"/>
    </person>
    <person id="ped61" depart="512.61" type="ped_pedestrian">
        <walk from="-1190968366#2" to="464214072"/>
    </person>
    <person id="ped62" depart="521.01" type="ped_pedestrian">
        <walk from="1456657582#2" to="1456657580#7"/>
    </person>
    <person id="ped63" depart="529.42" type="ped_pedestrian">
        <walk from="165791775#1" to="1060989493#3"/>
    </person>
    <person id="ped64" depart="537.82" type="ped_pedestrian">
        <walk from="-223368837" to="119276349#4"/>
    </person>
    <person id="ped65" depart="546.22" type="ped_pedestrian">
        <walk from="223368840" to="1061007736#5"/>
    </person>
    <person id="ped66" depart="554.63" type="ped_pedestrian">
        <walk from="1190968366#3" to="-455034515#2"/>
    </person>
    <person id="ped67" depart="563.03" type="ped_pedestrian">
        <walk from="-1060989494#1" to="543243609"/>
    </person>
    <person id="ped68" depart="571.43" type="ped_pedestrian">
        <walk from="954538897" to="-1060989493#0"/>
    </person>
    <person id="ped69" depart="579.84" type="ped_pedestrian">
        <walk from="-223368840" to="455048121"/>
    </person>
    <person id="ped70" depart="588.24" type="ped_pedestrian">
        <walk from="-223368834" to="223368840"/>
    </person>
    <person id="ped71" depart="596.64" type="ped_pedestrian">
        <walk from="-464214072" to="1061341067#0"/>
    </person>
    <person id="ped72" depart="605.05" type="ped_pedestrian">
        <walk from="-89864425#3" to="89864425#2"/>
    </person>
    <person id="ped73" depart="613.45" type="ped_pedestrian">
        <walk from="1060989495#1" to="-1061341067#0"/>
    </person>
    <person id="ped74" depart="621.85" type="ped_pedestrian">
        <walk from="-1060989496#1" to="-968947255"/>
    </person>
    <person id="ped75" depart="630.26" type="ped_pedestrian">
        <walk from="630092925#1" to="175724482#1"/>
    </person>
    <person id="ped76" depart="638.66" type="ped_pedestrian">
        <walk from="1218401979#1" to="-1061007736#3"/>
    </person>
    <person id="ped77" depart="647.06" type="ped_pedestrian">
        <walk from="455048121" to="-1218182444#1"/>
    </person>
    <person id="ped78" depart="655.47" type="ped_pedestrian">
        <walk from="-1218182445#0" to="223368838"/>
    </person>
    <person id="ped79" depart="663.87" type="ped_pedestrian">
        <walk from="455034516#0" to="954538897"/>
    </person>
    <person id="ped80" depart="672.27" type="ped_pedestrian">
        <walk from="-119276349#8" to="-1218182445#0"/>
    </person>
    <person id="ped81" depart="680.68" type="ped_pedestrian">
        <walk from="-1060989493#3" to="954538898#0"/>
    </person>
    <person id="ped82" depart="689.08" type="ped_pedestrian">
        <walk from="-168385063#1" to="1220241543#2"/>
    </person>
    <person id="ped83" depart="697.48" type="ped_pedestrian">
        <walk from="119276349#8" to="1060989493#7"/>
    </person>
    <person id="ped84" depart="705.89" type="ped_pedestrian">
        <walk from="-119276349#10" to="1060989493#3"/>
    </person>
    <person id="ped85" depart="714.29" type="ped_pedestrian">
        <walk from="-1190968366#0" to="-1061007736#3"/>
    </person>
    <person id="ped86" depart="722.69" type="ped_pedestrian">
        <walk from="-168385064" to="1190968366#1"/>
    </person>
    <person id="ped87" depart="731.10" type="ped_pedestrian">
        <walk from="1218182444#0" to="-119276358#1"/>
    </person>
    <person id="ped88" depart="739.50" type="ped_pedestrian">
        <walk from="-1060989493#0" to="-455035293"/>
    </person>
    <person id="ped89" depart="747.91" type="ped_pedestrian">
        <walk from="-1218182445#0" to="543243609"/>
    </person>
    <person id="ped90" depart="756.31" type="ped_pedestrian">
        <walk from="455034515#0" to="1061007736#2"/>
    </person>
    <person id="ped91" depart="764.71" type="ped_pedestrian">
        <walk from="-1220198577" to="954541340"/>
    </person>
    <person id="ped92" depart="773.12" type="ped_pedestrian">
        <walk from="1050341200" to="1060989493#7"/>
    </person>
    <person id="ped93" depart="781.52" type="ped_pedestrian">
        <walk from="-119276349#3" to="455038123"/>
    </person>
    <person id="ped94" depart="789.92" type="ped_pedestrian">
        <walk from="-1060989494#1" to="630094488#0"/>
    </person>
    <person id="ped95" depart="798.33" type="ped_pedestrian">
        <walk from="954791549" to="1190968366#2"/>
    </person>
    <person id="ped96" depart="806.73" type="ped_pedestrian">
        <walk from="223368836" to="1060989491"/>
    </person>
    <person id="ped97" depart="815.13" type="ped_pedestrian">
        <walk from="1220241545" to="1061007736#6"/>
    </person>
    <person id="ped98" depart="823.54" type="ped_pedestrian">
        <walk from="954538898#1" to="-1061007736#9"/>
    </person>
    <person id="ped99" depart="831.94" type="ped_pedestrian">
        <walk from="696628304#1" to="696627562#2"/>
    </person>
    <person id="ped100" depart="840.34" type="ped_pedestrian">
        <walk from="-223368834" to="630092925#2"/>
    </person>
    <person id="ped101" depart="848.75" type="ped_pedestrian">
        <walk from="-455034515#2" to="1061341067#0"/>
    </person>
    <person id="ped102" depart="857.15" type="ped_pedestrian">
        <walk from="1220198577" to="-1060989493#3"/>
    </person>
    <person id="ped103" depart="865.55" type="ped_pedestrian">
        <walk from="455034520" to="-1061341067#0"/>
    </person>
    <person id="ped104" depart="873.96" type="ped_pedestrian">
        <walk from="119276349#10" to="-119276349#6"/>
    </person>
    <person id="ped105" depart="882.36" type="ped_pedestrian">
        <walk from="-630094488#3" to="-1061007736#3"/>
    </person>
    <person id="ped106" depart="890.76" type="ped_pedestrian">
        <walk from="119276349#3" to="-630094488#3"/>
    </person>
    <person id="ped107" depart="899.17" type="ped_pedestrian">
        <walk from="-223368840" to="223368843"/>
    </person>
    <person id="ped108" depart="907.57" type="ped_pedestrian">
        <walk from="1190968366#3" to="223368843"/>
    </person>
    <person id="ped109" depart="915.97" type="ped_pedestrian">
        <walk from="1060989496#0" to="455037833#1"/>
    </person>
    <person id="ped110" depart="924.38" type="ped_pedestrian">
        <walk from="-954538898#0" to="455037832"/>
    </person>
    <person id="ped111" depart="932.78" type="ped_pedestrian">
        <walk from="-455048121" to="-1061007736#5"/>
    </person>
    <person id="ped112" depart="941.18" type="ped_pedestrian">
        <walk from="1218401979#1" to="630094488#2"/>
    </person>
    <person id="ped113" depart="949.59" type="ped_pedestrian">
        <walk from="1060989493#0" to="-968947261"/>
    </person>
    <person id="ped114" depart="957.99" type="ped_pedestrian">
        <walk from="-1060989494#2" to="954538897"/>
    </person>
    <person id="ped115" depart="966.39" type="ped_pedestrian">
        <walk from="-1061007736#0" to="1060989496#3"/>
    </person>
    <person id="ped116" depart="974.80" type="ped_pedestrian">
        <walk from="-1060989493#3" to="-455034516#1"/>
    </person>
    <person id="ped117" depart="983.20" type="ped_pedestrian">
        <walk from="-630093165#1" to="1061007736#8"/>
    </person>
    <person id="ped118" depart="991.60" type="ped_pedestrian">
        <walk from="-1460427195" to="119276349#11"/>
    </person>
    <person id="ped119" depart="1000.01" type="ped_pedestrian">
        <walk from="119276349#2" to="165791775#2"/>
    </person>
    <person id="ped120" depart="1008.41" type="ped_pedestrian">
        <walk from="-119276349#11" to="-1218182445#1"/>
    </person>
    <person id="ped121" depart="1016.81" type="ped_pedestrian">
        <walk from="-165792239#2" to="1220198571#1"/>
    </person>
    <person id="ped122" depart="1025.22" type="ped_pedestrian">
        <walk from="-119276349#9" to="630092925#1"/>
    </person>
    <person id="ped123" depart="1033.62" type="ped_pedestrian">
        <walk from="-1061341067#1" to="1061007736#8"/>
    </person>
    <person id="ped124" depart="1042.03" type="ped_pedestrian">
        <walk from="-89626464#0" to="-1061007736#4"/>
    </person>
    <person id="ped125" depart="1050.43" type="ped_pedestrian">
        <walk from="-119276358#0" to="1190968366#0"/>
    </person>
    <person id="ped126" depart="1058.83" type="ped_pedestrian">
        <walk from="-1061007736#3" to="968947261"/>
    </person>
    <person id="ped127" depart="1067.24" type="ped_pedestrian">
        <walk from="-1060989494#2" to="455037832"/>
    </person>
    <person id="ped128" depart="1075.64" type="ped_pedestrian">
        <walk from="1061007736#8" to="-1190968366#5"/>
    </person>
    <person id="ped129" depart="1084.04" type="ped_pedestrian">
        <walk from="1060989496#3" to="630094488#1"/>
    </person>
    <person id="ped130" depart="1092.45" type="ped_pedestrian">
        <walk from="1220198577" to="630094488#2"/>
    </person>
    <person id="ped131" depart="1100.85" type="ped_pedestrian">
        <walk from="1190968366#4" to="1050339286"/>
    </person>
    <person id="ped132" depart="1109.25" type="ped_pedestrian">
        <walk from="-1061007736#5" to="-1060989494#3"/>
    </person>
    <person id="ped133" depart="1117.66" type="ped_pedestrian">
        <walk from="-119276349#6" to="-168385063#0"/>
    </person>
    <person id="ped134" depart="1126.06" type="ped_pedestrian">
        <walk from="1061341067#0" to="1060989496#2"/>
    </person>
    <person id="ped135" depart="1134.46" type="ped_pedestrian">
        <walk from="-954483327" to="954483327"/>
    </person>
    <person id="ped136" depart="1142.87" type="ped_pedestrian">
        <walk from="-1460427195" to="119276358#0"/>
    </person>
    <person id="ped137" depart="1151.27" type="ped_pedestrian">
        <walk from="-165791775#0" to="954542722"/>
    </person>
    <person id="ped138" depart="1159.67" type="ped_pedestrian">
        <walk from="696627562#2" to="-1242765435"/>
    </person>
    <person id="ped139" depart="1168.08" type="ped_pedestrian">
        <walk from="-1060989493#7" to="-89626464#0"/>
    </person>
    <person id="ped140" depart="1176.48" type="ped_pedestrian">
        <walk from="-89626379#1" to="-165792239#2"/>
    </person>
    <person id="ped141" depart="1184.88" type="ped_pedestrian">
        <walk from="-1190968366#3" to="1218182444#0"/>
    </person>
    <person id="ped142" depart="1193.29" type="ped_pedestrian">
        <walk from="1060989494#1" to="-119276349#2"/>
    </person>
    <person id="ped143" depart="1201.69" type="ped_pedestrian">
        <walk from="1061007736#9" to="455034515#0"/>
    </person>
    <person id="ped144" depart="1210.09" type="ped_pedestrian">
        <walk from="-954538898#3" to="-464214072"/>
    </person>
    <person id="ped145" depart="1218.50" type="ped_pedestrian">
        <walk from="455037832" to="-1061007736#9"/>
    </person>
    <person id="ped146" depart="1226.90" type="ped_pedestrian">
        <walk from="-696628304#0" to="696625776#4"/>
    </person>
    <person id="ped147" depart="1235.30" type="ped_pedestrian">
        <walk from="1225401895" to="165791775#1"/>
    </person>
    <person id="ped148" depart="1243.71" type="ped_pedestrian">
        <walk from="1060989495#1" to="455038123"/>
    </person>
    <person id="ped149" depart="1252.11" type="ped_pedestrian">
        <walk from="954539127#1" to="1060989493#7"/>
    </person>
    <person id="ped150" depart="1260.51" type="ped_pedestrian">
        <walk from="954542722" to="-223368834"/>
    </person>
    <person id="ped151" depart="1268.92" type="ped_pedestrian">
        <walk from="954791549" to="-455034521#0"/>
    </person>
    <person id="ped152" depart="1277.32" type="ped_pedestrian">
        <walk from="455034515#2" to="-630094488#0"/>
    </person>
    <person id="ped153" depart="1285.72" type="ped_pedestrian">
        <walk from="175724482#1" to="1220198571#1"/>
    </person>
    <person id="ped154" depart="1294.13" type="ped_pedestrian">
        <walk from="1060989493#4" to="223368838"/>
    </person>
    <person id="ped155" depart="1302.53" type="ped_pedestrian">
        <walk from="165792241#1" to="89626403#0"/>
    </person>
    <person id="ped156" depart="1310.93" type="ped_pedestrian">
        <walk from="-175724482#2" to="1218182444#1"/>
    </person>
    <person id="ped157" depart="1319.34" type="ped_pedestrian">
        <walk from="119276349#2" to="1050339287"/>
    </person>
    <person id="ped158" depart="1327.74" type="ped_pedestrian">
        <walk from="1060989496#0" to="1060989496#2"/>
    </person>
    <person id="ped159" depart="1336.15" type="ped_pedestrian">
        <walk from="-1061007736#7" to="119276349#9"/>
    </person>
    <person id="ped160" depart="1344.55" type="ped_pedestrian">
        <walk from="1190968366#2" to="-1220241543#1"/>
    </person>
    <person id="ped161" depart="1352.95" type="ped_pedestrian">
        <walk from="968947261" to="630092925#2"/>
    </person>
    <person id="ped162" depart="1361.36" type="ped_pedestrian">
        <walk from="-1220241543#3" to="-1061007736#9"/>
    </person>
    <person id="ped163" depart="1369.76" type="ped_pedestrian">
        <walk from="-1190968366#4" to="119276349#1"/>
    </person>
    <person id="ped164" depart="1378.16" type="ped_pedestrian">
        <walk from="-119276349#9" to="630092925#1"/>
    </person>
    <person id="ped165" depart="1386.57" type="ped_pedestrian">
        <walk from="1218182444#0" to="-168385063#1"/>
    </person>
    <person id="ped166" depart="1394.97" type="ped_pedestrian">
        <walk from="89626403#0" to="223368836"/>
    </person>
    <person id="ped167" depart="1403.37" type="ped_pedestrian">
        <walk from="-455035368" to="-89626464#0"/>
    </person>
    <person id="ped168" depart="1411.78" type="ped_pedestrian">
        <walk from="630094488#0" to="1050341200"/>
    </person>
    <person id="ped169" depart="1420.18" type="ped_pedestrian">
        <walk from="-1060989493#4" to="1060989493#3"/>
    </person>
    <person id="ped170" depart="1428.58" type="ped_pedestrian">
        <walk from="968947260#1" to="-119276349#8"/>
    </person>
    <person id="ped171" depart="1436.99" type="ped_pedestrian">
        <walk from="630094488#2" to="455034521#0"/>
    </person>
    <person id="ped172" depart="1445.39" type="ped_pedestrian">
        <walk from="455038123" to="168385063#1"/>
    </person>
    <person id="ped173" depart="1453.79" type="ped_pedestrian">
        <walk from="-455034515#2" to="-1061007736#7"/>
    </person>
    <person id="ped174" depart="1462.20" type="ped_pedestrian">
        <walk from="455034520" to="1218401979#0"/>
    </person>
    <person id="ped175" depart="1470.60" type="ped_pedestrian">
        <walk from="1060989492" to="-630093165#0"/>
    </person>
    <person id="ped176" depart="1479.00" type="ped_pedestrian">
        <walk from="1220198577" to="1218182444#0"/>
    </person>
    <person id="ped177" depart="1487.41" type="ped_pedestrian">
        <walk from="119276349#11" to="-1220198577"/>
    </person>
    <person id="ped178" depart="1495.81" type="ped_pedestrian">
        <walk from="-1060989493#7" to="1060989494#0"/>
    </person>
    <person id="ped179" depart="1504.21" type="ped_pedestrian">
        <walk from="1456798057#1" to="1456657580#12"/>
    </person>
    <person id="ped180" depart="1512.62" type="ped_pedestrian">
        <walk from="-1190968366#3" to="954538898#0"/>
    </person>
    <person id="ped181" depart="1521.02" type="ped_pedestrian">
        <walk from="954538898#4" to="-223368834"/>
    </person>
    <person id="ped182" depart="1529.42" type="ped_pedestrian">
        <walk from="-119276349#2" to="-954541340"/>
    </person>
    <person id="ped183" depart="1537.83" type="ped_pedestrian">
        <walk from="954538898#2" to="1060989493#4"/>
    </person>
    <person id="ped184" depart="1546.23" type="ped_pedestrian">
        <walk from="-1060989494#1" to="-1060989493#7"/>
    </person>
    <person id="ped185" depart="1554.63" type="ped_pedestrian">
        <walk from="1060989493#0" to="455037833#1"/>
    </person>
    <person id="ped186" depart="1563.04" type="ped_pedestrian">
        <walk from="-543243609" to="-175724482#1"/>
    </person>
    <person id="ped187" depart="1571.44" type="ped_pedestrian">
        <walk from="-1061341067#1" to="-1060989494#3"/>
    </person>
    <person id="ped188" depart="1579.84" type="ped_pedestrian">
        <walk from="-165791775#1" to="954538898#0"/>
    </person>
    <person id="ped189" depart="1588.25" type="ped_pedestrian">
        <walk from="954539127#1" to="954538897"/>
    </person>
    <person id="ped190" depart="1596.65" type="ped_pedestrian">
        <walk from="-455034515#2" to="968947255"/>
    </person>
    <person id="ped191" depart="1605.05" type="ped_pedestrian">
        <walk from="1061007736#5" to="1060989495#0"/>
    </person>
    <person id="ped192" depart="1613.46" type="ped_pedestrian">
        <walk from="165791775#0" to="-165792239#2"/>
    </person>
    <person id="ped193" depart="1621.86" type="ped_pedestrian">
        <walk from="119276349#9" to="1061007736#3"/>
    </person>
    <person id="ped194" depart="1630.27" type="ped_pedestrian">
        <walk from="119276349#12" to="-1218182445#0"/>
    </person>
    <person id="ped195" depart="1638.67" type="ped_pedestrian">
        <walk from="-1061007736#7" to="-1190968366#5"/>
    </person>
    <person id="ped196" depart="1647.07" type="ped_pedestrian">
        <walk from="630093165#1" to="-165792239#2"/>
    </person>
    <person id="ped197" depart="1655.48" type="ped_pedestrian">
        <walk from="-1060989494#0" to="-1220241543#0"/>
    </person>
    <person id="ped198" depart="1663.88" type="ped_pedestrian">
        <walk from="-954538898#0" to="1060989496#2"/>
    </person>
    <person id="ped199" depart="1672.28" type="ped_pedestrian">
        <walk from="-630094488#0" to="119276358#2"/>
    </person>
    <person id="ped200" depart="1680.69" type="ped_pedestrian">
        <walk from="954538897" to="-455034521#0"/>
    </person>
    <person id="ped201" depart="1689.09" type="ped_pedestrian">
        <walk from="-1218182442" to="-168385064"/>
    </person>
    <person id="ped202" depart="1697.49" type="ped_pedestrian">
        <walk from="696628648" to="696628648"/>
    </person>
    <person id="ped203" depart="1705.90" type="ped_pedestrian">
        <walk from="1060989494#1" to="954791549"/>
    </person>
    <person id="ped204" depart="1714.30" type="ped_pedestrian">
        <walk from="1060989496#4" to="1061007736#0"/>
    </person>
    <person id="ped205" depart="1722.70" type="ped_pedestrian">
        <walk from="89626403#0" to="-455034515#2"/>
    </person>
    <person id="ped206" depart="1731.11" type="ped_pedestrian">
        <walk from="-630094488#3" to="-119276349#7"/>
    </person>
    <person id="ped207" depart="1739.51" type="ped_pedestrian">
        <walk from="175724482#2" to="-1060989493#4"/>
    </person>
    <person id="ped208" depart="1747.91" type="ped_pedestrian">
        <walk from="-1050341200" to="168385063#0"/>
    </person>
    <person id="ped209" depart="1756.32" type="ped_pedestrian">
        <walk from="1060989493#4" to="-1460427195"/>
    </person>
    <person id="ped210" depart="1764.72" type="ped_pedestrian">
        <walk from="1060989494#1" to="1060989493#4"/>
    </person>
    <person id="ped211" depart="1773.12" type="ped_pedestrian">
        <walk from="-1060989493#3" to="968947260#1"/>
    </person>
    <person id="ped212" depart="1781.53" type="ped_pedestrian">
        <walk from="455038123" to="-1060989496#3"/>
    </person>
    <person id="ped213" depart="1789.93" type="ped_pedestrian">
        <walk from="455038123" to="-119276349#9"/>
    </person>
    <person id="ped214" depart="1798.33" type="ped_pedestrian">
        <walk from="954541340" to="-954541340"/>
    </person>
    <person id="ped215" depart="1806.74" type="ped_pedestrian">
        <walk from="-119276349#9" to="-119276358#0"/>
    </person>
    <person id="ped216" depart="1815.14" type="ped_pedestrian">
        <walk from="-1061341066" to="543243609"/>
    </person>
    <person id="ped217" depart="1823.54" type="ped_pedestrian">
        <walk from="1060989495#1" to="455037833#1"/>
    </person>
    <person id="ped218" depart="1831.95" type="ped_pedestrian">
        <walk from="89626464#0" to="-968947261"/>
    </person>
    <person id="ped219" depart="1840.35" type="ped_pedestrian">