<?xml version="1.0" encoding="UTF-8"?>

<!-- generated on 2026-01-21 21:35:26.852054 by Eclipse SUMO osmWebWizard.py v1.25.0
<configuration>
    <net-file value="/home/hoeman/Sumo/2026-01-21-21-35-18/osm.net.xml.gz"/>
    <output-trip-file value="/home/hoeman/Sumo/2026-01-21-21-35-18/osm.bicycle.trips.xml"/>
    <route-file value="/home/hoeman/Sumo/2026-01-21-21-35-18/osm.bicycle.rou.xml"/>
    <prefix value="bike"/>
    <trip-attributes value="departLane=&quot;best&quot;"/>
    <fringe-start-attributes value="departSpeed=&quot;max&quot;"/>
    <vehicle-class value="bicycle"/>
    <fringe-factor value="2"/>
    <edge-permission value="bicycle"/>
    <via-edge-types value="highway.motorway,highway.motorway_link,highway.trunk_link,highway.primary_link,highway.secondary_link,highway.tertiary_link"/>
    <max-distance value="8000.0"/>
    <remove-loops value="True"/>
    <insertion-density value="6.0"/>
</configuration>
-->

<routes xmlns:xsi="http://www.w3.org/2001/XMLSchema-instance" xsi:noNamespaceSchemaLocation="http://sumo.dlr.de/xsd/routes_file.xsd">
    <vType id="bike_bicycle" vClass="bicycle"/>
    <trip id="bike0" depart="0.00" from="119276358#0" to="-1061007736#1" departLane="best" type="bike_bicycle"/>
    <trip id="bike1" depart="6.21" from="-166334867#1" to="136482798#1" departLane="best" type="bike_bicycle"/>
    <trip id="bike2" depart="12.41" from="455496241" to="-1006436802#0" departLane="best" type="bike_bicycle"/>
    <trip id="bike3" depart="18.62" from="-696619687" to="-166334576#0" departLane="best" type="bike_bicycle" departSpeed="max"/>
    <trip id="bike4" depart="24.82" from="954534278" to="-954524072" departLane="best" type="bike_bicycle" departSpeed="max"/>
    <trip id="bike5" depart="31.03" from="543222022#6" to="166098247" departLane="best" type="bike_bicycle"/>
    <trip id="bike6" depart="37.23" from="-136482799#0" to="35923691#3" departLane="best" type="bike_bicycle"/>
    <trip id="bike7" depart="43.44" from="967521303" to="166327150#1" departLane="best" type="bike_bicycle" departSpeed="max"/>
    <trip id="bike8" depart="49.64" from="-566033568#0" to="-696627562#0" departLane="best" type="bike_bicycle"/>
    <trip id="bike9" depart="55.85" from="1220241543#0" to="1060989493#0" departLane="best" type="bike_bicycle"/>
    <trip id="bike10" depart="62.05" from="89748540" to="1183389472#0" departLane="best" type="bike_bicycle"/>
    <trip id="bike11" depart="68.26" from="-168525851#1" to="-696617336#2" departLane="best" type="bike_bicycle"/>
    <trip id="bike12" depart="74.46" from="108179314" to="-696623344" departLane="best" type="bike_bicycle" departSpeed="max"/>
    <trip id="bike13" depart="80.67" from="968947259" to="119276349#6" departLane="best" type="bike_bicycle"/>
    <trip id="bike14" depart="86.88" from="35923599#0" to="1081677329" departLane="best" type="bike_bicycle" departSpeed="max"/>
    <trip id="bike15" depart="93.08" from="-1163294283" to="-974590846" departLane="best" type="bike_bicycle"/>
    <trip id="bike16" depart="99.29" from="696623237#0" to="-696623344" departLane="best" type="bike_bicycle"/>
    <trip id="bike17" depart="105.49" from="175724482#2" to="1220198571#1" departLane="best" type="bike_bicycle"/>
    <trip id="bike18" depart="111.70" from="-1006436797#0" to="-954487028" departLane="best" type="bike_bicycle"/>
    <trip id="bike19" depart="117.90" from="696623344" to="696624628" departLane="best" type="bike_bicycle" departSpeed="max"/>
    <trip id="bike20" depart="124.11" from="-533313749#3" to="-1183389476#4" departLane="best" type="bike_bicycle" departSpeed="max"/>
    <trip id="bike21" depart="130.31" from="-168525851#1" to="888808685" departLane="best" type="bike_bicycle"/>
    <trip id="bike22" depart="136.52" from="-89864437#6" to="-254017922" departLane="best" type="bike_bicycle"/>
    <trip id="bike23" depart="142.72" from="-954481588#1" to="1212629516" departLane="best" type="bike_bicycle"/>
    <trip id="bike24" depart="148.93" from="-696618375" to="136482798#0" departLane="best" type="bike_bicycle"/>
    <trip id="bike25" depart="155.14" from="-166327207#1" to="-1427050783" departLane="best" type="bike_bicycle"/>
    <trip id="bike26" depart="161.34" from="455037833#0" to="-168385063#2" departLane="best" type="bike_bicycle"/>
    <trip id="bike27" depart="167.55" from="-89864437#6" to="1183389476#1" departLane="best" type="bike_bicycle"/>
    <trip id="bike28" depart="173.75" from="967494613" to="-1215566873#3" departLane="best" type="bike_bicycle" departSpeed="max"/>
    <trip id="bike29" depart="179.96" from="696617336#1" to="-696618494" departLane="best" type="bike_bicycle"/>
    <trip id="bike30" depart="186.16" from="974590846" to="696625776#3" departLane="best" type="bike_bicycle"/>
    <trip id="bike31" depart="192.37" from="-696629010" to="967716352" departLane="best" type="bike_bicycle" departSpeed="max"/>
    <trip id="bike32" depart="198.57" from="-168525851#1" to="566512547#7" departLane="best" type="bike_bicycle"/>
    <trip id="bike33" depart="204.78" from="-1125912916#3" to="136482751#0" departLane="best" type="bike_bicycle"/>
    <trip id="bike34" depart="210.98" from="-967520008" to="696631803" departLane="best" type="bike_bicycle"/>
    <trip id="bike35" depart="217.19" from="696628304#1" to="-696617336#1" departLane="best" type="bike_bicycle"/>
    <trip id="bike36" depart="223.39" from="1183389475#0" to="166101690" departLane="best" type="bike_bicycle"/>
    <trip id="bike37" depart="229.60" from="-89864437#1" to="136482751#0" departLane="best" type="bike_bicycle"/>
    <trip id="bike38" depart="235.81" from="127236381#0" to="-89748540" departLane="best" type="bike_bicycle"/>
    <trip id="bike39" depart="242.01" from="-566033568#1" to="459851220#2" departLane="best" type="bike_bicycle"/>
    <trip id="bike40" depart="248.22" from="968947260#1" to="968947260#2" departLane="best" type="bike_bicycle"/>
    <trip id="bike41" depart="254.42" from="-696627562#2" to="-166334867#0" departLane="best" type="bike_bicycle"/>
    <trip id="bike42" depart="260.63" from="1218182446" to="-1060989493#0" departLane="best" type="bike_bicycle" departSpeed="max"/>
    <trip id="bike43" depart="266.83" from="459851221" to="-89748540" departLane="best" type="bike_bicycle"/>
    <trip id="bike44" depart="273.04" from="1231002495" to="954524074" departLane="best" type="bike_bicycle"/>
    <trip id="bike45" depart="279.24" from="-1222539025" to="-1266044488#0" departLane="best" type="bike_bicycle" departSpeed="max"/>
    <trip id="bike46" depart="285.45" from="-89864437#6" to="-696628648" departLane="best" type="bike_bicycle"/>
    <trip id="bike47" depart="291.65" from="-1006436797#4" to="543222022#8" departLane="best" type="bike_bicycle"/>
    <trip id="bike48" depart="297.86" from="167955351#3" to="1231002494" departLane="best" type="bike_bicycle"/>
    <trip id="bike49" depart="304.07" from="566033568#0" to="136482748" departLane="best" type="bike_bicycle"/>
    <trip id="bike50" depart="310.27" from="455496242#1" to="89626530#0" departLane="best" type="bike_bicycle"/>
    <trip id="bike51" depart="316.48" from="-1060989495#1" to="455034521#1" departLane="best" type="bike_bicycle"/>
    <trip id="bike52" depart="322.68" from="455496242#0" to="-696625776#3" departLane="best" type="bike_bicycle"/>
    <trip id="bike53" depart="328.89" from="-166334926" to="696620931" departLane="best" type="bike_bicycle" departSpeed="max"/>
    <trip id="bike54" depart="335.09" from="-954500169" to="-89864437#1" departLane="best" type="bike_bicycle" departSpeed="max"/>
    <trip id="bike55" depart="341.30" from="35923691#0" to="-533313749#1" departLane="best" type="bike_bicycle"/>
    <trip id="bike56" depart="347.50" from="954483328#0" to="-1266044488#0" departLane="best" type="bike_bicycle"/>
    <trip id="bike57" depart="353.71" from="-119276362" to="1125729966" departLane="best" type="bike_bicycle" departSpeed="max"/>
    <trip id="bike58" depart="359.91" from="-832010968#0" to="1341152012#1" departLane="best" type="bike_bicycle"/>
    <trip id="bike59" depart="366.12" from="167955351#4" to="167955351#1" departLane="best" type="bike_bicycle"/>
    <trip id="bike60" depart="372.32" from="166326997#1" to="-89748580#2" departLane="best" type="bike_bicycle"/>
    <trip id="bike61" depart="378.53" from="-89626379#1" to="-89626464#3" departLane="best" type="bike_bicycle"/>
    <trip id="bike62" depart="384.74" from="-1220241543#1" to="1061341067#1" departLane="best" type="bike_bicycle"/>
    <trip id="bike63" depart="390.94" from="-459851220#0" to="1225609344" departLane="best" type="bike_bicycle"/>
    <trip id="bike64" depart="397.15" from="-935745880#3" to="1347586928#1" departLane="best" type="bike_bicycle" departSpeed="max"/>
    <trip id="bike65" depart="403.35" from="127236381#1" to="-459851220#2" departLane="best" type="bike_bicycle"/>
    <trip id="bike66" depart="409.56" from="543222022#8" to="1225609344" departLane="best" type="bike_bicycle"/>
    <trip id="bike67" depart="415.76" from="1192334608#5" to="-696628304#0" departLane="best" type="bike_bicycle"/>
    <trip id="bike68" depart="421.97" from="-170055411#1" to="-935745886" departLane="best" type="bike_bicycle"/>
    <trip id="bike69" depart="428.17" from="1060989494#2" to="-165791775#2" departLane="best" type="bike_bicycle"/>
    <trip id="bike70" depart="434.38" from="166101690" to="-118915964#0" departLane="best" type="bike_bicycle"/>
    <trip id="bike71" depart="440.58" from="1163294283" to="168525850" departLane="best" type="bike_bicycle"/>
    <trip id="bike72" depart="446.79" from="632421982#3" to="543222022#1" departLane="best" type="bike_bicycle"/>
    <trip id="bike73" depart="453.00" from="-696629265" to="-1006436799#1" departLane="best" type="bike_bicycle" departSpeed="max"/>
    <trip id="bike74" depart="459.20" from="630094488#2" to="954538898#5" departLane="best" type="bike_bicycle"/>
    <trip id="bike75" depart="465.41" from="-89864437#1" to="455496243#1" departLane="best" type="bike_bicycle"/>
    <trip id="bike76" depart="471.61" from="-877375530" to="1292284346#0" departLane="best" type="bike_bicycle"/>
    <trip id="bike77" depart="477.82" from="-1225345699" to="1183389475#2" departLane="best" type="bike_bicycle" departSpeed="max"/>
    <trip id="bike78" depart="484.02" from="-166327205" to="-954487029" departLane="best" type="bike_bicycle" departSpeed="max"/>
    <trip id="bike79" depart="490.23" from="163637943#2" to="543222022#3" departLane="best" type="bike_bicycle"/>
    <trip id="bike80" depart="496.43" from="166258976#0" to="-1191966700" departLane="best" type="bike_bicycle"/>
    <trip id="bike81" depart="502.64" from="1418812312#0" to="166258974#6" departLane="best" type="bike_bicycle"/>
    <trip id="bike82" depart="508.84" from="-119276349#5" to="543243609" departLane="best" type="bike_bicycle"/>
    <trip id="bike83" depart="515.05" from="569561871#2" to="1425299786" departLane="best" type="bike_bicycle"/>
    <trip id="bike84" depart="521.25" from="569561871#2" to="696622687" departLane="best" type="bike_bicycle"/>
    <trip id="bike85" depart="527.46" from="166192954" to="1125912862#1" departLane="best" type="bike_bicycle"/>
    <trip id="bike86" depart="533.67" from="1060989493#9" to="1190968366#0" departLane="best" type="bike_bicycle"/>
    <trip id="bike87" depart="539.87" from="-1191966697" to="254017920#1" departLane="best" type="bike_bicycle"/>
    <trip id="bike88" depart="546.08" from="1418812312#0" to="166328690" departLane="best" type="bike_bicycle"/>
    <trip id="bike89" depart="552.28" from="1418812312#1" to="-89864437#2" departLane="best" type="bike_bicycle"/>
    <trip id="bike90" depart="558.49" from="954541961#0" to="1242765435" departLane="best" type="bike_bicycle"/>
    <trip id="bike91" depart="564.69" from="1462254698" to="-136482799#1" departLane="best" type="bike_bicycle"/>
    <trip id="bike92" depart="570.90" from="696622685#0" to="1191966700" departLane="best" type="bike_bicycle"/>
    <trip id="bike93" depart="577.10" from="696622884" to="1292330298" departLane="best" type="bike_bicycle"/>
    <trip id="bike94" depart="583.31" from="954487028" to="118915940#1" departLane="best" type="bike_bicycle" departSpeed="max"/>
    <trip id="bike95" depart="589.51" from="-1125912866" to="-166326997#5" departLane="best" type="bike_bicycle"/>
    <trip id="bike96" depart="595.72" from="108534913#0" to="-89864425#3" departLane="best" type="bike_bicycle" departSpeed="max"/>
    <trip id="bike97" depart="601.92" from="967521303" to="-89864437#1" departLane="best" type="bike_bicycle" departSpeed="max"/>
    <trip id="bike98" depart="608.13" from="1222539024" to="-166334822" departLane="best" type="bike_bicycle" departSpeed="max"/>
    <trip id="bike99" depart="614.34" from="-136482820#1" to="-1191966699" departLane="best" type="bike_bicycle"/>
    <trip id="bike100" depart="620.54" from="-1006436797#3" to="1156915074" departLane="best" type="bike_bicycle"/>
    <trip id="bike101" depart="626.75" from="254017920#1" to="166258974#2" departLane="best" type="bike_bicycle"/>
    <trip id="bike102" depart="632.95" from="-1081677329" to="108534913#6" departLane="best" type="bike_bicycle" departSpeed="max"/>
    <trip id="bike103" depart="639.16" from="-569561871#0" to="-696620929" departLane="best" type="bike_bicycle"/>
    <trip id="bike104" depart="645.36" from="-1192037623#1" to="954549855" departLane="best" type="bike_bicycle" departSpeed="max"/>
    <trip id="bike105" depart="651.57" from="566033568#1" to="1292330298" departLane="best" type="bike_bicycle"/>
    <trip id="bike106" depart="657.77" from="954498206#2" to="974590846" departLane="best" type="bike_bicycle"/>
    <trip id="bike107" depart="663.98" from="127236381#1" to="-696627562#2" departLane="best" type="bike_bicycle"/>
    <trip id="bike108" depart="670.18" from="-1081677329" to="533313749#3" departLane="best" type="bike_bicycle" departSpeed="max"/>
    <trip id="bike109" depart="676.39" from="1177836295#1" to="166323915#0" departLane="best" type="bike_bicycle"/>
    <trip id="bike110" depart="682.60" from="-630094488#1" to="168385075" departLane="best" type="bike_bicycle"/>
    <trip id="bike111" depart="688.80" from="455496243#2" to="1230257493" departLane="best" type="bike_bicycle"/>
    <trip id="bike112" depart="695.01" from="967520008" to="166431114" departLane="best" type="bike_bicycle"/>
    <trip id="bike113" depart="701.21" from="1060989495#1" to="1061007736#3" departLane="best" type="bike_bicycle"/>
    <trip id="bike114" depart="707.42" from="-954481588#1" to="168525854" departLane="best" type="bike_bicycle"/>
    <trip id="bike115" depart="713.62" from="967555354#0" to="954483327" departLane="best" type="bike_bicycle" departSpeed="max"/>
    <trip id="bike116" depart="719.83" from="-954503019#1" to="-1266044626#1" departLane="best" type="bike_bicycle" departSpeed="max"/>
    <trip id="bike117" depart="726.03" from="543222022#9" to="1192334609#1" departLane="best" type="bike_bicycle"/>
    <trip id="bike118" depart="732.24" from="-89864425#0" to="954500169" departLane="best" type="bike_bicycle"/>
    <trip id="bike119" depart="738.44" from="-967524309" to="696622686#1" departLane="best" type="bike_bicycle" departSpeed="max"/>
    <trip id="bike120" depart="744.65" from="1125912862#1" to="-566033568#2" departLane="best" type="bike_bicycle"/>
    <trip id="bike121" depart="750.85" from="167955351#7" to="170055411#2" departLane="best" type="bike_bicycle"/>
    <trip id="bike122" depart="757.06" from="455496242#1" to="1006436798" departLane="best" type="bike_bicycle"/>
    <trip id="bike123" depart="763.27" from="1242765435" to="696622686#1" departLane="best" type="bike_bicycle"/>
    <trip id="bike124" depart="769.47" from="696623235#1" to="1125912866" departLane="best" type="bike_bicycle"/>
    <trip id="bike125" depart="775.68" from="1006436797#2" to="1177836296#4" departLane="best" type="bike_bicycle"/>
    <trip id="bike126" depart="781.88" from="-954534280#1" to="954812577#1" departLane="best" type="bike_bicycle"/>
    <trip id="bike127" depart="788.09" from="166323915#0" to="538133754#1" departLane="best" type="bike_bicycle"/>
    <trip id="bike128" depart="794.29" from="696622884" to="1125912916#2" departLane="best" type="bike_bicycle"/>
    <trip id="bike129" depart="800.50" from="696622685#3" to="166101690" departLane="best" type="bike_bicycle"/>
    <trip id="bike130" depart="806.70" from="-1049200866" to="696617336#1" departLane="best" type="bike_bicycle" departSpeed="max"/>
    <trip id="bike131" depart="812.91" from="-696620931" to="136482797" departLane="best" type="bike_bicycle" departSpeed="max"/>
    <trip id="bike132" depart="819.11" from="-166221841#0" to="1006436797#3" departLane="best" type="bike_bicycle"/>
    <trip id="bike133" depart="825.32" from="-954541961#1" to="-569561871#0" departLane="best" type="bike_bicycle" departSpeed="max"/>
    <trip id="bike134" depart="831.53" from="1125912862#1" to="1292330298" departLane="best" type="bike_bicycle"/>
    <trip id="bike135" depart="837.73" from="136482798#1" to="455496241" departLane="best" type="bike_bicycle"/>
    <trip id="bike136" depart="843.94" from="-954812579#0" to="935745880#3" departLane="best" type="bike_bicycle"/>
    <trip id="bike137" depart="850.14" from="1341152012#1" to="254017920#2" departLane="best" type="bike_bicycle"/>
    <trip id="bike138" depart="856.35" from="1221894853" to="696627562#1" departLane="best" type="bike_bicycle"/>
    <trip id="bike139" depart="862.55" from="1006436802#0" to="954483327" departLane="best" type="bike_bicycle"/>
    <trip id="bike140" depart="868.76" from="543222022#7" to="-696622686#2" departLane="best" type="bike_bicycle"/>
    <trip id="bike141" depart="874.96" from="543222022#0" to="118915966#2" departLane="best" type="bike_bicycle"/>
    <trip id="bike142" depart="881.17" from="-696618375" to="-1266044488#0" departLane="best" type="bike_bicycle"/>
    <trip id="bike143" depart="887.37" from="954537909#2" to="832012469#5" departLane="best" type="bike_bicycle"/>
    <trip id="bike144" depart="893.58" from="-696625776#2" to="569561871#1" departLane="best" type="bike_bicycle"/>
    <trip id="bike145" depart="899.78" from="-1060989493#0" to="1220241544" departLane="best" type="bike_bicycle"/>
    <trip id="bike146" depart="905.99" from="127236381#1" to="136482751#1" departLane="best" type="bike_bicycle"/>
    <trip id="bike147" depart="912.20" from="-119276362" to="-566514591#0" departLane="best" type="bike_bicycle" departSpeed="max"/>
    <trip id="bike148" depart="918.40" from="108179314" to="954483328#1" departLane="best" type="bike_bicycle" departSpeed="max"/>
    <trip id="bike149" depart="924.61" from="-166334926" to="-118915940#0" departLane="best" type="bike_bicycle" departSpeed="max"/>
    <trip id="bike150" depart="930.81" from="-1225345699" to="1177836295#2" departLane="best" type="bike_bicycle" departSpeed="max"/>
    <trip id="bike151" depart="937.02" from="-696627563#0" to="1125912916#1" departLane="best" type="bike_bicycle"/>
    <trip id="bike152" depart="943.22" from="954498206#2" to="832010968#1" departLane="best" type="bike_bicycle"/>
    <trip id="bike153" depart="949.43" from="569561871#0" to="1177836296#1" departLane="best" type="bike_bicycle"/>
    <trip id="bike154" depart="955.63" from="696622685#2" to="-954493625#0" departLane="best" type="bike_bicycle"/>
    <trip id="bike155" depart="961.84" from="175724482#1" to="119276358#1" departLane="best" type="bike_bicycle"/>
    <trip id="bike156" depart="968.04" from="954497170" to="-108534913#5" departLane="best" type="bike_bicycle"/>
    <trip id="bike157" depart="974.25" from="-954538898#5" to="1060989493#9" departLane="best" type="bike_bicycle"/>
    <trip id="bike158" depart="980.46" from="136482798#1" to="1191966700" departLane="best" type="bike_bicycle"/>
    <trip id="bike159" depart="986.66" from="-1183389476#1" to="-696628304#1" departLane="best" type="bike_bicycle"/>
    <trip id="bike160" depart="992.87" from="-630093165#0" to="968947260#0" departLane="best" type="bike_bicycle"/>
    <trip id="bike161" depart="999.07" from="1006436802#0" to="1177836296#0" departLane="best" type="bike_bicycle"/>
    <trip id="bike162" depart="1005.28" from="-954498206#1" to="-533313749#2" departLane="best" type="bike_bicycle"/>
    <trip id="bike163" depart="1011.48" from="-696618494" to="1177836295#2" departLane="best" type="bike_bicycle"/>
    <trip id="bike164" depart="1017.69" from="-696628304#0" to="-166327207#1" departLane="best" type="bike_bicycle"/>
    <trip id="bike165" depart="1023.89" from="89864437#3" to="-118915966#1" departLane="best" type="bike_bicycle"/>
    <trip id="bike166" depart="1030.10" from="543222022#9" to="-1212629516" departLane="best" type="bike_bicycle"/>
    <trip id="bike167" depart="1036.30" from="-119276349#1" to="455037832" departLane="best" type="bike_bicycle"/>
    <trip id="bike168" depart="1042.51" from="455496243#0" to="1266044626#2" departLane="best" type="bike_bicycle"/>
    <trip id="bike169" depart="1048.71" from="1177836295#2" to="127236381#1" departLane="best" type="bike_bicycle"/>
    <trip id="bike170" depart="1054.92" from="167955360" to="877423628#0" departLane="best" type="bike_bicycle" departSpeed="max"/>
    <trip id="bike171" depart="1061.13" from="1125912867" to="-343946194" departLane="best" type="bike_bicycle"/>
    <trip id="bike172" depart="1067.33" from="-119276362" to="696628469" departLane="best" type="bike_bicycle" departSpeed="max"/>
    <trip id="bike173" depart="1073.54" from="-696627562#0" to="542923582#1" departLane="best" type="bike_bicycle"/>
    <trip id="bike174" depart="1079.74" from="1125912862#4" to="696617336#3" departLane="best" type="bike_bicycle"/>
    <trip id="bike175" depart="1085.95" from="464214072" to="165791775#2" departLane="best" type="bike_bicycle"/>
    <trip id="bike176" depart="1092.15" from="-170055409" to="-167961113#0" departLane="best" type="bike_bicycle"/>
    <trip id="bike177" depart="1098.36" from="-696619687" to="-1006436799#1" departLane="best" type="bike_bicycle" departSpeed="max"/>
    <trip id="bike178" depart="1104.56" from="696622685#2" to="1292288393" departLane="best" type="bike_bicycle"/>
    <trip id="bike179" depart="1110.77" from="119276349#2" to="-1061007736#8" departLane="best" type="bike_bicycle"/>
    <trip id="bike180" depart="1116.97" from="-696627563#0" to="254017920#3" departLane="best" type="bike_bicycle"/>
    <trip id="bike181" depart="1123.18" from="-954493625#0" to="-696628000#1" departLane="best" type="bike_bicycle"/>
    <trip id="bike182" depart="1129.39" from="-935745880#3" to="-832012469#3" departLane="best" type="bike_bicycle" departSpeed="max"/>
    <trip id="bike183" depart="1135.59" from="-877397250#1" to="1425299785" departLane="best" type="bike_bicycle" departSpeed="max"/>
    <trip id="bike184" depart="1141.80" from="-1006436802#1" to="-89864425#0" departLane="best" type="bike_bicycle" departSpeed="max"/>
    <trip id="bike185" depart="1148.00" from="-1006436802#1" to="455496243#0" departLane="best" type="bike_bicycle" departSpeed="max"/>
    <trip id="bike186" depart="1154.21" from="543431366" to="696617336#3" departLane="best" type="bike_bicycle"/>
    <trip id="bike187" depart="1160.41" from="1125912865" to="1292323239" departLane="best" type="bike_bicycle"/>
    <trip id="bike188" depart="1166.62" from="-1218182441" to="-1060989496#2" departLane="best" type="bike_bicycle" departSpeed="max"/>
    <trip id="bike189" depart="1172.82" from="1191966697" to="696624628" departLane="best" type="bike_bicycle"/>
    <trip id="bike190" depart="1179.03" from="166328691" to="696622685#2" departLane="best" type="bike_bicycle"/>
    <trip id="bike191" depart="1185.23" from="455496243#4" to="-566514591#3" departLane="best" type="bike_bicycle"/>
    <trip id="bike192" depart="1191.44" from="1183389476#4" to="538402972" departLane="best" type="bike_bicycle"/>
    <trip id="bike193" depart="1197.64" from="-954497171#1" to="954498205" departLane="best" type="bike_bicycle" departSpeed="max"/>
    <trip id="bike194" depart="1203.85" from="108534913#1" to="166323915#1" departLane="best" type="bike_bicycle"/>
    <trip id="bike195" depart="1210.06" from="1192335102" to="-166327150#1" departLane="best" type="bike_bicycle"/>
    <trip id="bike196" depart="1216.26" from="-459851221" to="-696628304#0" departLane="best" type="bike_bicycle"/>
    <trip id="bike197" depart="1222.47" from="-1125912916#2" to="696624628" departLane="best" type="bike_bicycle"/>
    <trip id="bike198" depart="1228.67" from="-967521130#1" to="1183389475#3" departLane="best" type="bike_bicycle" departSpeed="max"/>
    <trip id="bike199" depart="1234.88" from="1061007736#8" to="630093165#0" departLane="best" type="bike_bicycle"/>
    <trip id="bike200" depart="1241.08" from="455496241" to="166334928" departLane="best" type="bike_bicycle"/>
    <trip id="bike201" depart="1247.29" from="-566514591#4" to="118915934" departLane="best" type="bike_bicycle" departSpeed="max"/>
    <trip id="bike202" depart="1253.49" from="-1292284346#1" to="-118915931#2" departLane="best" type="bike_bicycle"/>
    <trip id="bike203" depart="1259.70" from="-696618375" to="1425299785" departLane="best" type="bike_bicycle"/>
    <trip id="bike204" depart="1265.90" from="254017920#2" to="166334576#0" departLane="best" type="bike_bicycle"/>
    <trip id="bike205" depart="1272.11" from="166327150#1" to="166430753" departLane="best" type="bike_bicycle"/>
    <trip id="bike206" depart="1278.31" from="89626403#0" to="89626379#0" departLane="best" type="bike_bicycle"/>
    <trip id="bike207" depart="1284.52" from="-696617336#0" to="136482750" departLane="best" type="bike_bicycle"/>
    <trip id="bike208" depart="1290.73" from="-845884821" to="1416492915" departLane="best" type="bike_bicycle" departSpeed="max"/>
    <trip id="bike209" depart="1296.93" from="-696628648" to="569561871#2" departLane="best" type="bike_bicycle"/>
    <trip id="bike210" depart="1303.14" from="566033568#0" to="89748523#2" departLane="best" type="bike_bicycle"/>
    <trip id="bike211" depart="1309.34" from="-696628648" to="-166566140#1" departLane="best" type="bike_bicycle"/>
    <trip id="bike212" depart="1315.55" from="543222022#8" to="543222022#8" departLane="best" type="bike_bicycle"/>
    <trip id="bike213" depart="1321.75" from="455496240" to="-167951154#1" departLane="best" type="bike_bicycle"/>
    <trip id="bike214" depart="1327.96" from="1292323239" to="-569561871#1" departLane="best" type="bike_bicycle"/>
    <trip id="bike215" depart="1334.16" from="455496240" to="1183389476#4" departLane="best" type="bike_bicycle"/>
    <trip id="bike216" depart="1340.37" from="954498204" to="967533747" departLane="best" type="bike_bicycle"/>
    <trip id="bike217" depart="1346.57" from="455034515#2" to="-165791775#2" departLane="best" type="bike_bicycle"/>
    <trip id="bike218" depart="1352.78" from="696623235#1" to="1266044488#1" departLane="best" type="bike_bicycle"/>
    <trip id="bike219" depart="1358.99" from="630094488#0" to="-845884824" departLane="best" type="bike_bicycle"/>
    <trip id="bike220" depart="1365.19" from="543222022#6" to="168525851#1" departLane="best" type="bike_bicycle"/>
    <trip id="bike221" depart="1371.40" from="-954497171#1" to="-1006436799#0" departLane="best" type="bike_bicycle" departSpeed="max"/>
    <trip id="bike222" depart="1377.60" from="566033568#0" to="1230257493" departLane="best" type="bike_bicycle"/>
    <trip id="bike223" depart="1383.81" from="-1215566847#0" to="-877423628#0" departLane="best" type="bike_bicycle"/>
    <trip id="bike224" depart="1390.01" from="-459851220#0" to="-1125912867" departLane="best" type="bike_bicycle"/>
    <trip id="bike225" depart="1396.22" from="954541961#0" to="-118915966#2" departLane="best" type="bike_bicycle"/>
    <trip id="bike226" depart="1402.42" from="967521130#0" to="1266044488#1" departLane="best" type="bike_bicycle"/>
    <trip id="bike227" depart="1408.63" from="166336263" to="166258976#0" departLane="best" type="bike_bicycle" departSpeed="max"/>
    <trip id="bike228" depart="1414.83" from="-632421983#0" to="-108534913#6" departLane="best" type="bike_bicycle"/>
    <trip id="bike229" depart="1421.04" from="-1081681931" to="-170055410#1" departLane="best" type="bike_bicycle" departSpeed="max"/>
    <trip id="bike230" depart="1427.24" from="1183389476#4" to="696622687" departLane="best" type="bike_bicycle"/>
    <trip id="bike231" depart="1433.45" from="-935745867#1" to="167961113#7" departLane="best" type="bike_bicycle"/>
    <trip id="bike232" depart="1439.66" from="-696622686#2" to="-108534913#4" departLane="best" type="bike_bicycle"/>
    <trip id="bike233" depart="1445.86" from="-1183389476#3" to="566033568#1" departLane="best" type="bike_bicycle"/>
    <trip id="bike234" depart="1452.07" from="-696625776#3" to="1006436797#1" departLane="best" type="bike_bicycle"/>
    <trip id="bike235" depart="1458.27" from="108534913#5" to="1456657573" departLane="best" type="bike_bicycle"/>
    <trip id="bike236" depart="1464.48" from="-696627563#2" to="542923582#1" departLane="best" type="bike_bicycle"/>
    <trip id="bike237" depart="1470.68" from="166566140#1" to="1192335102" departLane="best" type="bike_bicycle"/>
    <trip id="bike238" depart="1476.89" from="-832010968#1" to="127236381#1" departLane="best" type="bike_bicycle" departSpeed="max"/>
    <trip id="bike239" depart="1483.09" from="-954812575#1" to="-1347586928#0" departLane="best" type="bike_bicycle" departSpeed="max"/>
    <trip id="bike240" depart="1489.30" from="832012469#4" to="1149027724" departLane="best" type="bike_bicycle"/>