<?xml version="1.0" encoding="UTF-8"?>

<!-- generated on 2026-03-02 21:32:10.703477 by Eclipse SUMO randomTrips.py v1.26.0
<configuration>
    <net-file value="map_grid.net.xml"/>
    <route-file value="map_grid.rou.xml"/>
    <trip-attributes value="type=&quot;DEFAULT_VEHTYPE&quot;"/>
    <lanes value="True"/>
    <fringe-factor value="100"/>
    <random value="True"/>
    <min-distance value="800.0"/>
    <maxtries value="250"/>
    <period value="1.5"/>
    <flows value="150"/>
</configuration>
-->

<!-- generated on 2026-03-02T21:32:10.695345+07:00 by Eclipse SUMO duarouter 1.26.0
<duarouterConfiguration xmlns:xsi="http://www.w3.org/2001/XMLSchema-instance" xsi:noNamespaceSchemaLocation="http://sumo.dlr.de/xsd/duarouterConfiguration.xsd">

    <input>
        <net-file value="map_grid.net.xml"/>
        <route-files value="trips.trips.xml"/>
    </input>

    <output>
        <output-file value="map_grid.rou.xml"/>
        <alternatives-output value="NUL"/>
    </output>

    <processing>
        <keep-flows value="true"/>
    </processing>

    <time>
        <begin value="0"/>
        <end value="3600.0"/>
    </time>

    <report>
        <no-warnings value="true"/>
        <ignore-errors value="true"/>
        <no-step-log value="true"/>
    </report>

</duarouterConfiguration>
-->

<routes xmlns:xsi="http://www.w3.org/2001/XMLSchema-instance" xsi:noNamespaceSchemaLocation="http://sumo.dlr.de/xsd/routes_file.xsd">
    <flow id="0" type="DEFAULT_VEHTYPE" begin="0.00" end="3600.00" probability="0.02">
        <route edges="-E6 D1D2 D2D3 D3C3 C3B3 -B3A3 E15"/>
    </flow>
    <flow id="1" type="DEFAULT_VEHTYPE" begin="0.00" end="3600.00" probability="0.02">
        <route edges="-E8 C0C1 C1C2 C2B2 B2A2 A2A3 E0"/>
    </flow>
    <flow id="10" type="DEFAULT_VEHTYPE" begin="0.00" end="3600.00" probability="0.02">
        <route edges="-E13 A1B1 B1B2 B2B3 E1"/>
    </flow>
    <flow id="100" type="DEFAULT_VEHTYPE" begin="0.00" end="3600.00" probability="0.02">
        <route edges="-E7 D0D1 D1D2 D2D3 E3"/>
    </flow>
    <flow id="101" type="DEFAULT_VEHTYPE" begin="0.00" end="3600.00" probability="0.02">
        <route edges="-E3 D3C3 C3B3 B3B2 B2B1 B1B0 E10"/>
    </flow>
    <flow id="102" type="DEFAULT_VEHTYPE" begin="0.00" end="3600.00" probability="0.02">
        <route edges="-E8 C0C1 C1D1 E6"/>
    </flow>
    <flow id="103" type="DEFAULT_VEHTYPE" begin="0.00" end="3600.00" probability="0.02">
        <route edges="-E1 B3C3 C3D3 E4"/>
    </flow>
    <flow id="104" type="DEFAULT_VEHTYPE" begin="0.00" end="3600.00" probability="0.02">
        <route edges="-E12 A0B0 B0C0 E8"/>
    </flow>
    <flow id="105" type="DEFAULT_VEHTYPE" begin="0.00" end="3600.00" probability="0.02">
        <route edges="-E1 B3B2 B2B1 B1A1 A1A0 E11"/>
    </flow>
    <flow id="106" type="DEFAULT_VEHTYPE" begin="0.00" end="3600.00" probability="0.02">
        <route edges="-E10 B0B1 B1B2 B2A2 E14"/>
    </flow>
    <flow id="107" type="DEFAULT_VEHTYPE" begin="0.00" end="3600.00" probability="0.02">
        <route edges="-E1 B3B2 B2C2 C2D2 E5"/>
    </flow>
    <flow id="108" type="DEFAULT_VEHTYPE" begin="0.00" end="3600.00" probability="0.02">
        <route edges="-E11 A0B0 B0C0 C0C1 C1C2 C2C3 E2"/>
    </flow>
    <flow id="109" type="DEFAULT_VEHTYPE" begin="0.00" end="3600.00" probability="0.02">
        <route edges="-E14 A2A1 A1B1 B1C1 C1D1 E6"/>
    </flow>
    <flow id="11" type="DEFAULT_VEHTYPE" begin="0.00" end="3600.00" probability="0.02">
        <route edges="-E2 C3C2 C2C1 C1D1 D1D0 E9"/>
    </flow>
    <flow id="110" type="DEFAULT_VEHTYPE" begin="0.00" end="3600.00" probability="0.02">
        <route edges="-E5 D2C2 C2B2 B2A2 A2A1 A1A0 E11"/>
    </flow>
    <flow id="111" type="DEFAULT_VEHTYPE" begin="0.00" end="3600.00" probability="0.02">
        <route edges="-E10 B0B1 B1C1 C1D1 E6"/>
    </flow>
    <flow id="112" type="DEFAULT_VEHTYPE" begin="0.00" end="3600.00" probability="0.02">
        <route edges="-E13 A1B1 B1B2 B2B3 E1"/>
    </flow>
    <flow id="113" type="DEFAULT_VEHTYPE" begin="0.00" end="3600.00" probability="0.02">
        <route edges="-E2 C3C2 C2C1 C1C0 C0D0 E7"/>
    </flow>
    <flow id="114" type="DEFAULT_VEHTYPE" begin="0.00" end="3600.00" probability="0.02">
        <route edges="-E12 A0B0 B0C0 C0C1 C1C2 C2D2 E5"/>
    </flow>
    <flow id="115" type="DEFAULT_VEHTYPE" begin="0.00" end="3600.00" probability="0.02">
        <route edges="-E2 C3C2 C2B2 B2A2 E14"/>
    </flow>
    <flow id="116" type="DEFAULT_VEHTYPE" begin="0.00" end="3600.00" probability="0.02">
        <route edges="-E3 D3C3 C3B3 -B3A3 E0"/>
    </flow>
    <flow id="117" type="DEFAULT_VEHTYPE" begin="0.00" end="3600.00" probability="0.02">
        <route edges="-E13 A1B1 B1C1 C1C2 C2C3 E2"/>
    </flow>
    <flow id="118" type="DEFAULT_VEHTYPE" begin="0.00" end="3600.00" probability="0.02">
        <route edges="-E3 D3D2 D2C2 C2B2 B2A2 E14"/>
    </flow>
    <flow id="119" type="DEFAULT_VEHTYPE" begin="0.00" end="3600.00" probability="0.02">
        <route edges="-E5 D2C2 C2B2 B2B1 B1B0 B0A0 E12"/>
    </flow>
    <flow id="12" type="DEFAULT_VEHTYPE" begin="0.00" end="3600.00" probability="0.02">
        <route edges="-E0 A3A2 A2A1 A1A0 E12"/>
    </flow>
    <flow id="120" type="DEFAULT_VEHTYPE" begin="0.00" end="3600.00" probability="0.02">
        <route edges="-E3 D3D2 D2D1 E6"/>
    </flow>
    <flow id="121" type="DEFAULT_VEHTYPE" begin="0.00" end="3600.00" probability="0.02">
        <route edges="-E2 C3B3 -B3A3 E15"/>
    </flow>
    <flow id="122" type="DEFAULT_VEHTYPE" begin="0.00" end="3600.00" probability="0.02">
        <route edges="-E13 A1B1 B1C1 C1D1 E6"/>
    </flow>
    <flow id="123" type="DEFAULT_VEHTYPE" begin="0.00" end="3600.00" probability="0.02">
        <route edges="-E6 D1C1 C1C2 C2C3 E2"/>
    </flow>
    <flow id="124" type="DEFAULT_VEHTYPE" begin="0.00" end="3600.00" probability="0.02">
        <route edges="-E2 C3C2 C2B2 B2A2 E14"/>
    </flow>
    <flow id="125" type="DEFAULT_VEHTYPE" begin="0.00" end="3600.00" probability="0.02">
        <route edges="-E5 D2C2 C2B2 B2A2 A2A1 E13"/>
    </flow>
    <flow id="126" type="DEFAULT_VEHTYPE" begin="0.00" end="3600.00" probability="0.02">
        <route edges="-E6 D1C1 C1B1 B1B2 B2B3 E1"/>
    </flow>
    <flow id="127" type="DEFAULT_VEHTYPE" begin="0.00" end="3600.00" probability="0.02">
        <route edges="-E15 B3A3 B3C3 C3D3 D3D2 D2D1 D1D0 E9"/>
    </flow>
    <flow id="128" type="DEFAULT_VEHTYPE" begin="0.00" end="3600.00" probability="0.02">
        <route edges="-E7 D0D1 D1D2 D2D3 E4"/>
    </flow>
    <flow id="129" type="DEFAULT_VEHTYPE" begin="0.00" end="3600.00" probability="0.02">
        <route edges="-E6 D1C1 C1B1 B1A1 E13"/>
    </flow>
    <flow id="13" type="DEFAULT_VEHTYPE" begin="0.00" end="3600.00" probability="0.02">
        <route edges="-E6 D1D2 D2C2 C2B2 B2B1"/>
    </flow>
    <flow id="130" type="DEFAULT_VEHTYPE" begin="0.00" end="3600.00" probability="0.02">
        <route edges="-E3 D3C3 C3B3 B3B2 B2B1 B1B0 E10"/>
    </flow>
    <flow id="131" type="DEFAULT_VEHTYPE" begin="0.00" end="3600.00" probability="0.02">
        <route edges="-E14 A2B2 B2C2 C2C1 C1C0 E8"/>
    </flow>
    <flow id="132" type="DEFAULT_VEHTYPE" begin="0.00" end="3600.00" probability="0.02">
        <route edges="-E8 C0C1 C1B1 B1A1 E13"/>
    </flow>
    <flow id="133" type="DEFAULT_VEHTYPE" begin="0.00" end="3600.00" probability="0.02">
        <route edges="-E3 D3D2 D2D1 D1D0 D0C0 C0B0"/>
    </flow>
    <flow id="134" type="DEFAULT_VEHTYPE" begin="0.00" end="3600.00" probability="0.02">
        <route edges="-E7 D0D1 D1D2 D2D3 E3"/>
    </flow>
    <flow id="135" type="DEFAULT_VEHTYPE" begin="0.00" end="3600.00" probability="0.02">
        <route edges="-E0 A3A2 A2A1 A1B1 B1B0 E10"/>
    </flow>
    <flow id="136" type="DEFAULT_VEHTYPE" begin="0.00" end="3600.00" probability="0.02">
        <route edges="-E6 D1C1 C1C0 E8"/>
    </flow>
    <flow id="137" type="DEFAULT_VEHTYPE" begin="0.00" end="3600.00" probability="0.02">
        <route edges="-E7 D0C0 C0B0 B0A0 E11"/>
    </flow>
    <flow id="138" type="DEFAULT_VEHTYPE" begin="0.00" end="3600.00" probability="0.02">
        <route edges="-E1 B3B2 B2B1 B1B0 E10"/>
    </flow>
    <flow id="139" type="DEFAULT_VEHTYPE" begin="0.00" end="3600.00" probability="0.02">
        <route edges="-E7 D0C0 C0B0 B0B1 B1A1 E13"/>
    </flow>
    <flow id="14" type="DEFAULT_VEHTYPE" begin="0.00" end="3600.00" probability="0.02">
        <route edges="-E9 D0D1 D1D2 D2C2 C2B2 B2A2 A2A3 E0"/>
    </flow>
    <flow id="140" type="DEFAULT_VEHTYPE" begin="0.00" end="3600.00" probability="0.02">
        <route edges="A3A2 A2A1 A1A0 E12"/>
    </flow>
    <flow id="141" type="DEFAULT_VEHTYPE" begin="0.00" end="3600.00" probability="0.02">
        <route edges="-E10 B0B1 B1B2 B2B3 E1"/>
    </flow>
    <flow id="142" type="DEFAULT_VEHTYPE" begin="0.00" end="3600.00" probability="0.02">
        <route edges="-E1 B3C3 C3D3 E4"/>
    </flow>
    <flow id="143" type="DEFAULT_VEHTYPE" begin="0.00" end="3600.00" probability="0.02">
        <route edges="-E14 A2B2 B2C2 C2D2 D2D3 E3"/>
    </flow>
    <flow id="144" type="DEFAULT_VEHTYPE" begin="0.00" end="3600.00" probability="0.02">
        <route edges="-E1 B3B2 B2B1 B1C1 C1C0 E8"/>
    </flow>
    <flow id="145" type="DEFAULT_VEHTYPE" begin="0.00" end="3600.00" probability="0.02">
        <route edges="-E7 D0C0 C0B0 B0A0 E11"/>
    </flow>
    <flow id="146" type="DEFAULT_VEHTYPE" begin="0.00" end="3600.00" probability="0.02">
        <route edges="-E3 D3C3 C3B3 -B3A3 E15"/>
    </flow>
    <flow id="147" type="DEFAULT_VEHTYPE" begin="0.00" end="3600.00" probability="0.02">
        <route edges="-E9 D0C0 C0B0 B0A0 E12"/>
    </flow>
    <flow id="148" type="DEFAULT_VEHTYPE" begin="0.00" end="3600.00" probability="0.02">
        <route edges="-E7 D0D1 D1D2 D2D3 E4"/>
    </flow>
    <flow id="149" type="DEFAULT_VEHTYPE" begin="0.00" end="3600.00" probability="0.02">
        <route edges="-E7 D0C0 C0B0 B0B1 B1A1 E13"/>
    </flow>
    <flow id="15" type="DEFAULT_VEHTYPE" begin="0.00" end="3600.00" probability="0.02">
        <route edges="-E13 A1B1 B1C1 C1C0 E8"/>
    </flow>
    <flow id="16" type="DEFAULT_VEHTYPE" begin="0.00" end="3600.00" probability="0.02">
        <route edges="-E2 C3B3 -B3A3 A3A2 A2A1 A1A0 E11"/>
    </flow>
    <flow id="17" type="DEFAULT_VEHTYPE" begin="0.00" end="3600.00" probability="0.02">
        <route edges="-E12 A0A1 A1A2 A2A3 E0"/>
    </flow>
    <flow id="18" type="DEFAULT_VEHTYPE" begin="0.00" end="3600.00" probability="0.02">
        <route edges="B3A3 B3B2 B2B1 B1B0 B0A0 E12"/>
    </flow>
    <flow id="19" type="DEFAULT_VEHTYPE" begin="0.00" end="3600.00" probability="0.02">
        <route edges="B0C0 C0C1 C1C2 C2C3 E2"/>
    </flow>
    <flow id="2" type="DEFAULT_VEHTYPE" begin="0.00" end="3600.00" probability="0.02">
        <route edges="-E13 A1A2 A2B2 B2C2 C2D2 E5"/>
    </flow>
    <flow id="20" type="DEFAULT_VEHTYPE" begin="0.00" end="3600.00" probability="0.02">
        <route edges="-E15 A3A2 A2B2 B2C2 C2D2 E5"/>
    </flow>
    <flow id="21" type="DEFAULT_VEHTYPE" begin="0.00" end="3600.00" probability="0.02">
        <route edges="B2B3 B3C3 C3D3 E3"/>
    </flow>
    <flow id="22" type="DEFAULT_VEHTYPE" begin="0.00" end="3600.00" probability="0.02">
        <route edges="-E15 A3A2 A2B2 B2C2 C2D2 E5"/>
    </flow>
    <flow id="23" type="DEFAULT_VEHTYPE" begin="0.00" end="3600.00" probability="0.02">
        <route edges="-E7 D0C0 C0B0 B0A0 E12"/>
    </flow>
    <flow id="24" type="DEFAULT_VEHTYPE" begin="0.00" end="3600.00" probability="0.02">
        <route edges="-E2 C3B3 -B3A3 A3A2 A2A1 A1A0 E11"/>
    </flow>
    <flow id="25" type="DEFAULT_VEHTYPE" begin="0.00" end="3600.00" probability="0.02">
        <route edges="-E0 A3A2 A2A1 A1B1 B1B0 E10"/>
    </flow>
    <flow id="26" type="DEFAULT_VEHTYPE" begin="0.00" end="3600.00" probability="0.02">
        <route edges="-E6 D1D2 D2C2 C2B2 B2A2 E14"/>
    </flow>
    <flow id="27" type="DEFAULT_VEHTYPE" begin="0.00" end="3600.00" probability="0.02">
        <route edges="-E4 D3C3 C3B3 E1"/>
    </flow>
    <flow id="28" type="DEFAULT_VEHTYPE" begin="0.00" end="3600.00" probability="0.02">
        <route edges="-E1 B3B2 B2B1 B1A1 A1A0 E11"/>
    </flow>
    <flow id="29" type="DEFAULT_VEHTYPE" begin="0.00" end="3600.00" probability="0.02">
        <route edges="-E9 D0D1 D1D2 D2C2 C2B2 B2A2 E14"/>
    </flow>
    <flow id="3" type="DEFAULT_VEHTYPE" begin="0.00" end="3600.00" probability="0.02">
        <route edges="-E9 D0D1 D1D2 D2D3 E3"/>
    </flow>
    <flow id="30" type="DEFAULT_VEHTYPE" begin="0.00" end="3600.00" probability="0.02">
        <route edges="-E15 B3A3 B3C3 C3C2 C2C1 C1C0 E8"/>
    </flow>
    <flow id="31" type="DEFAULT_VEHTYPE" begin="0.00" end="3600.00" probability="0.02">
        <route edges="-E0 A3A2 A2A1 A1B1 B1C1 C1D1 D1D0 E9"/>
    </flow>
    <flow id="32" type="DEFAULT_VEHTYPE" begin="0.00" end="3600.00" probability="0.02">
        <route edges="-E5 D2D1 D1D0 E9"/>
    </flow>
    <flow id="33" type="DEFAULT_VEHTYPE" begin="0.00" end="3600.00" probability="0.02">
        <route edges="-E12 A0B0 B0C0 C0D0 E7"/>
    </flow>
    <flow id="34" type="DEFAULT_VEHTYPE" begin="0.00" end="3600.00" probability="0.02">
        <route edges="-E8 C0C1 C1C2 C2C3 C3B3 -B3A3 E15"/>
    </flow>
    <flow id="35" type="DEFAULT_VEHTYPE" begin="0.00" end="3600.00" probability="0.02">
        <route edges="-E0 B3A3 B3C3 C3D3 E4"/>
    </flow>
    <flow id="36" type="DEFAULT_VEHTYPE" begin="0.00" end="3600.00" probability="0.02">
        <route edges="-E9 D0C0 C0B0 B0A0 E11"/>
    </flow>
    <flow id="37" type="DEFAULT_VEHTYPE" begin="0.00" end="3600.00" probability="0.02">
        <route edges="-E14 A2B2 B2C2 C2D2 E5"/>
    </flow>
    <flow id="38" type="DEFAULT_VEHTYPE" begin="0.00" end="3600.00" probability="0.02">
        <route edges="-E12 A0B0 B0C0 C0D0 E9"/>
    </flow>
    <flow id="39" type="DEFAULT_VEHTYPE" begin="0.00" end="3600.00" probability="0.02">
        <route edges="-E12 A0A1 A1A2 A2A3 E15"/>
    </flow>
    <flow id="4" type="DEFAULT_VEHTYPE" begin="0.00" end="3600.00" probability="0.02">
        <route edges="-E11 A0A1 A1B1 B1C1 C1D1 E6"/>
    </flow>
    <flow id="40" type="DEFAULT_VEHTYPE" begin="0.00" end="3600.00" probability="0.02">
        <route edges="-E1 B3B2 B2B1 B1C1 C1D1 E6"/>
    </flow>
    <flow id="41" type="DEFAULT_VEHTYPE" begin="0.00" end="3600.00" probability="0.02">
        <route edges="-E10 B0B1 B1B2 B2B3 E1"/>
    </flow>
    <flow id="42" type="DEFAULT_VEHTYPE" begin="0.00" end="3600.00" probability="0.02">
        <route edges="-E11 A0A1 A1A2 A2A3 E0"/>
    </flow>
    <flow id="43" type="DEFAULT_VEHTYPE" begin="0.00" end="3600.00" probability="0.02">
        <route edges="D0C0 C0B0 B0B1 B1B2 B2A2 E14"/>
    </flow>
    <flow id="44" type="DEFAULT_VEHTYPE" begin="0.00" end="3600.00" probability="0.02">
        <route edges="-E6 D1C1 C1B1 B1B2 B2B3 E1"/>
    </flow>
    <flow id="45" type="DEFAULT_VEHTYPE" begin="0.00" end="3600.00" probability="0.02">
        <route edges="-E6 D1C1 C1B1 B1A1 A1A2 A2A3 E0"/>
    </flow>
    <flow id="46" type="DEFAULT_VEHTYPE" begin="0.00" end="3600.00" probability="0.02">
        <route edges="-E3 D3C3 C3B3 B3B2 B2B1 B1B0 E10"/>
    </flow>
    <flow id="47" type="DEFAULT_VEHTYPE" begin="0.00" end="3600.00" probability="0.02">
        <route edges="-E10 B0B1 B1B2 B2A2 A2A3 E0"/>
    </flow>
    <flow id="48" type="DEFAULT_VEHTYPE" begin="0.00" end="3600.00" probability="0.02">
        <route edges="-E0 A3A2 A2A1 A1A0 A0B0 B0C0 E8"/>
    </flow>
    <flow id="49" type="DEFAULT_VEHTYPE" begin="0.00" end="3600.00" probability="0.02">
        <route edges="-E12 A0B0 B0C0 C0C1 C1C2 C2C3 E2"/>
    </flow>
    <flow id="5" type="DEFAULT_VEHTYPE" begin="0.00" end="3600.00" probability="0.02">
        <route edges="-E3 D3D2 D2D1 D1C1 C1B1 B1A1 A1A0 E11"/>
    </flow>
    <flow id="50" type="DEFAULT_VEHTYPE" begin="0.00" end="3600.00" probability="0.02">
        <route edges="-E3 D3D2 D2D1 D1D0 E9"/>
    </flow>
    <flow id="51" type="DEFAULT_VEHTYPE" begin="0.00" end="3600.00" probability="0.02">
        <route edges="-E13 A1B1 B1C1 C1C0 E8"/>
    </flow>
    <flow id="52" type="DEFAULT_VEHTYPE" begin="0.00" end="3600.00" probability="0.02">
        <route edges="-E7 D0C0 C0B0 B0A0 A0A1 A1A2 A2A3 E0"/>
    </flow>
    <flow id="53" type="DEFAULT_VEHTYPE" begin="0.00" end="3600.00" probability="0.02">
        <route edges="-E13 A1B1 B1C1 C1D1 D1D2 D2D3 E4"/>
    </flow>
    <flow id="54" type="DEFAULT_VEHTYPE" begin="0.00" end="3600.00" probability="0.02">
        <route edges="-E15 B3A3 B3C3 C3D3 E4"/>
    </flow>
    <flow id="55" type="DEFAULT_VEHTYPE" begin="0.00" end="3600.00" probability="0.02">
        <route edges="-E11 A0A1 A1A2 A2B2 B2C2 C2D2 E5"/>
    </flow>
    <flow id="56" type="DEFAULT_VEHTYPE" begin="0.00" end="3600.00" probability="0.02">
        <route edges="-E9 D0C0 C0C1 C1C2 C2C3 E2"/>
    </flow>
    <flow id="57" type="DEFAULT_VEHTYPE" begin="0.00" end="3600.00" probability="0.02">
        <route edges="-E10 B0B1 B1B2 B2A2 E14"/>
    </flow>
    <flow id="58" type="DEFAULT_VEHTYPE" begin="0.00" end="3600.00" probability="0.02">
        <route edges="-E14 A2A1 A1A0 E11"/>
    </flow>
    <flow id="59" type="DEFAULT_VEHTYPE" begin="0.00" end="3600.00" probability="0.02">
        <route edges="-E0 A3A2 A2A1 A1B1 B1C1 C1D1 D1D0 E9"/>
    </flow>
    <flow id="6" type="DEFAULT_VEHTYPE" begin="0.00" end="3600.00" probability="0.02">
        <route edges="-E0 A3A2 A2A1 A1A0 E11"/>
    </flow>
    <flow id="60" type="DEFAULT_VEHTYPE" begin="0.00" end="3600.00" probability="0.02">
        <route edges="-E14 A2B2 B2C2 C2D2 E5"/>
    </flow>
    <flow id="61" type="DEFAULT_VEHTYPE" begin="0.00" end="3600.00" probability="0.02">
        <route edges="-E10 B0B1 B1B2 B2C2 C2D2 E5"/>
    </flow>
    <flow id="62" type="DEFAULT_VEHTYPE" begin="0.00" end="3600.00" probability="0.02">
        <route edges="D0C0 C0B0 B0A0 E12"/>
    </flow>
    <flow id="63" type="DEFAULT_VEHTYPE" begin="0.00" end="3600.00" probability="0.02">
        <route edges="-E10 B0B1 B1C1 C1D1 D1D0"/>
    </flow>
    <flow id="64" type="DEFAULT_VEHTYPE" begin="0.00" end="3600.00" probability="0.02">
        <route edges="-E4 D3C3 C3B3 B3B2 B2A2 E14"/>
    </flow>
    <flow id="65" type="DEFAULT_VEHTYPE" begin="0.00" end="3600.00" probability="0.02">
        <route edges="-E15 B3A3 B3C3 E2"/>
    </flow>
    <flow id="66" type="DEFAULT_VEHTYPE" begin="0.00" end="3600.00" probability="0.02">
        <route edges="-E6 D1C1 C1C2 C2C3 E2"/>
    </flow>
    <flow id="67" type="DEFAULT_VEHTYPE" begin="0.00" end="3600.00" probability="0.02">
        <route edges="-E10 B0B1 B1B2 B2C2 C2C3 E2"/>
    </flow>
    <flow id="68" type="DEFAULT_VEHTYPE" begin="0.00" end="3600.00" probability="0.02">
        <route edges="-E13 A1B1 B1C1 C1D1 D1D2 D2D3 E4"/>
    </flow>
    <flow id="69" type="DEFAULT_VEHTYPE" begin="0.00" end="3600.00" probability="0.02">
        <route edges="-E7 D0C0 C0B0 B0A0 E11"/>
    </flow>
    <flow id="7" type="DEFAULT_VEHTYPE" begin="0.00" end="3600.00" probability="0.02">
        <route edges="-E5 D2C2 C2B2 B2A2 E14"/>
    </flow>
    <flow id="70" type="DEFAULT_VEHTYPE" begin="0.00" end="3600.00" probability="0.02">
        <route edges="-E15 B3A3 B3B2 B2B1 B1B0 E10"/>
    </flow>
    <flow id="71" type="DEFAULT_VEHTYPE" begin="0.00" end="3600.00" probability="0.02">
        <route edges="-E3 D3D2 D2D1 D1D0 D0C0 C0B0 B0A0 E12"/>
    </flow>
    <flow id="72" type="DEFAULT_VEHTYPE" begin="0.00" end="3600.00" probability="0.02">
        <route edges="-E3 D3C3 C3B3 E1"/>
    </flow>
    <flow id="73" type="DEFAULT_VEHTYPE" begin="0.00" end="3600.00" probability="0.02">
        <route edges="-E14 A2B2 B2C2 C2D2 D2D3 E4"/>
    </flow>
    <flow id="74" type="DEFAULT_VEHTYPE" begin="0.00" end="3600.00" probability="0.02">
        <route edges="-E4 D3C3 C3B3 B3B2 B2B1 B1B0 E10"/>
    </flow>
    <flow id="75" type="DEFAULT_VEHTYPE" begin="0.00" end="3600.00" probability="0.02">
        <route edges="-E3 D3C3 C3B3 -B3A3 E15"/>
    </flow>
    <flow id="76" type="DEFAULT_VEHTYPE" begin="0.00" end="3600.00" probability="0.02">
        <route edges="-E7 D0C0 C0C1 C1C2 C2C3 E2"/>
    </flow>
    <flow id="77" type="DEFAULT_VEHTYPE" begin="0.00" end="3600.00" probability="0.02">
        <route edges="-E13 A1A0 A0B0 B0C0 C0D0 E7"/>
    </flow>
    <flow id="78" type="DEFAULT_VEHTYPE" begin="0.00" end="3600.00" probability="0.02">
        <route edges="-E12 A0B0 B0C0 C0D0 D0D1 D1D2 D2D3 E3"/>
    </flow>
    <flow id="79" type="DEFAULT_VEHTYPE" begin="0.00" end="3600.00" probability="0.02">
        <route edges="-E10 B0B1 B1B2 B2A2 A2A3 E0"/>
    </flow>
    <flow id="8" type="DEFAULT_VEHTYPE" begin="0.00" end="3600.00" probability="0.02">
        <route edges="-E3 D3D2 D2D1 D1D0 E7"/>
    </flow>
    <flow id="80" type="DEFAULT_VEHTYPE" begin="0.00" end="3600.00" probability="0.02">
        <route edges="-E3 D3D2 D2D1 D1D0 E9"/>
    </flow>
    <flow id="81" type="DEFAULT_VEHTYPE" begin="0.00" end="3600.00" probability="0.02">
        <route edges="-E12 A0B0 B0C0 C0C1 C1C2 C2C3 E2"/>
    </flow>
    <flow id="82" type="DEFAULT_VEHTYPE" begin="0.00" end="3600.00" probability="0.02">
        <route edges="-E2 C3B3 -B3A3 E15"/>
    </flow>
    <flow id="83" type="DEFAULT_VEHTYPE" begin="0.00" end="3600.00" probability="0.02">
        <route edges="-E12 A0B0 B0C0 E8"/>
    </flow>
    <flow id="84" type="DEFAULT_VEHTYPE" begin="0.00" end="3600.00" probability="0.02">
        <route edges="-E9 D0D1 D1D2 D2D3 D3C3 C3B3 -B3A3 E15"/>
    </flow>
    <flow id="85" type="DEFAULT_VEHTYPE" begin="0.00" end="3600.00" probability="0.02">
        <route edges="-E1 B3B2 B2B1 B1B0 E10"/>
    </flow>
    <flow id="86" type="DEFAULT_VEHTYPE" begin="0.00" end="3600.00" probability="0.02">
        <route edges="-E1 B3B2 B2B1 B1A1 E13"/>
    </flow>
    <flow id="87" type="DEFAULT_VEHTYPE" begin="0.00" end="3600.00" probability="0.02">
        <route edges="-E4 D3D2 D2D1 D1D0 E7"/>
    </flow>
    <flow id="88" type="DEFAULT_VEHTYPE" begin="0.00" end="3600.00" probability="0.02">
        <route edges="-E2 C3B3 B3B2 B2B1 B1B0 E10"/>
    </flow>
    <flow id="89" type="DEFAULT_VEHTYPE" begin="0.00" end="3600.00" probability="0.02">
        <route edges="-E3 D3C3 C3B3 -B3A3 E15"/>
    </flow>
    <flow id="9" type="DEFAULT_VEHTYPE" begin="0.00" end="3600.00" probability="0.02">
        <route edges="-E0 B3A3 B3C3 C3D3 E4"/>
    </flow>
    <flow id="90" type="DEFAULT_VEHTYPE" begin="0.00" end="3600.00" probability="0.02">
        <route edges="-E2 C3C2 C2C1 C1C0 C0D0 E7"/>
    </flow>
    <flow id="91" type="DEFAULT_VEHTYPE" begin="0.00" end="3600.00" probability="0.02">
        <route edges="-E8 C0C1 C1C2 C2D2 E5"/>
    </flow>
    <flow id="92" type="DEFAULT_VEHTYPE" begin="0.00" end="3600.00" probability="0.02">
        <route edges="-E3 D3D2 D2D1 D1D0 E9"/>
    </flow>
    <flow id="93" type="DEFAULT_VEHTYPE" begin="0.00" end="3600.00" probability="0.02">
        <route edges="-E8 C0C1 C1C2 C2B2 B2A2 A2A3 E0"/>
    </flow>
    <flow id="94" type="DEFAULT_VEHTYPE" begin="0.00" end="3600.00" probability="0.02">
        <route edges="-E9 D0D1 D1D2 D2C2 C2B2 B2A2 A2A3 E0"/>
    </flow>
    <flow id="95" type="DEFAULT_VEHTYPE" begin="0.00" end="3600.00" probability="0.02">
        <route edges="-E13 A1B1 B1C1 C1D1 D1D2 D2D3 E3"/>
    </flow>
    <flow id="96" type="DEFAULT_VEHTYPE" begin="0.00" end="3600.00" probability="0.02">
        <route edges="-E10 B0B1 B1B2 B2B3 B3C3 C3D3 E4"/>
    </flow>
    <flow id="97" type="DEFAULT_VEHTYPE" begin="0.00" end="3600.00" probability="0.02">
        <route edges="-E5 D2C2 C2C1 C1C0 E8"/>
    </flow>
    <flow id="98" type="DEFAULT_VEHTYPE" begin="0.00" end="3600.00" probability="0.02">
        <route edges="-E0 A3A2 A2A1 A1A0 A0B0 B0C0 C0D0 E7"/>
    </flow>
    <flow id="99" type="DEFAULT_VEHTYPE" begin="0.00" end="3600.00" probability="0.02">
        <route edges="-E9 D0D1 D1D2 D2D3 E4"/>
    </flow>
</routes>
