<?xml version="1.0" encoding="UTF-8"?>

<!-- generated on 2026-03-02 21:32:10.637338 by Eclipse SUMO randomTrips.py v1.26.0
<configuration>
    <net-file value="map_grid.net.xml"/>
    <route-file value="map_grid.rou.xml"/>
    <trip-attributes value="type=&quot;DEFAULT_VEHTYPE&quot;"/>
    <lanes value="True"/>
    <fringe-factor value="100"/>
    <random value="True"/>
    <min-distance value="800.0"/>
    <maxtries value="250"/>
    <period value="1.5"/>
    <flows value="150"/>
</configuration>
-->

<routes xmlns:xsi="http://www.w3.org/2001/XMLSchema-instance" xsi:noNamespaceSchemaLocation="http://sumo.dlr.de/xsd/routes_file.xsd">
    <flow id="0" begin="0" end="3600" period="225" from="-E6" to="E15" type="DEFAULT_VEHTYPE"/>
    <flow id="1" begin="0" end="3600" period="225" from="-E8" to="E0" type="DEFAULT_VEHTYPE"/>
    <flow id="2" begin="0" end="3600" period="225" from="-E13" to="E5" type="DEFAULT_VEHTYPE"/>
    <flow id="3" begin="0" end="3600" period="225" from="-E9" to="E3" type="DEFAULT_VEHTYPE"/>
    <flow id="4" begin="0" end="3600" period="225" from="-E11" to="E6" type="DEFAULT_VEHTYPE"/>
    <flow id="5" begin="0" end="3600" period="225" from="-E3" to="E11" type="DEFAULT_VEHTYPE"/>
    <flow id="6" begin="0" end="3600" period="225" from="-E0" to="E11" type="DEFAULT_VEHTYPE"/>
    <flow id="7" begin="0" end="3600" period="225" from="-E5" to="E14" type="DEFAULT_VEHTYPE"/>
    <flow id="8" begin="0" end="3600" period="225" from="-E3" to="E7" type="DEFAULT_VEHTYPE"/>
    <flow id="9" begin="0" end="3600" period="225" from="-E0" to="E4" type="DEFAULT_VEHTYPE"/>
    <flow id="10" begin="0" end="3600" period="225" from="-E13" to="E1" type="DEFAULT_VEHTYPE"/>
    <flow id="11" begin="0" end="3600" period="225" from="-E2" to="E9" type="DEFAULT_VEHTYPE"/>
    <flow id="12" begin="0" end="3600" period="225" from="-E0" to="E12" type="DEFAULT_VEHTYPE"/>
    <flow id="13" begin="0" end="3600" period="225" from="-E6" to="B2B1" type="DEFAULT_VEHTYPE"/>
    <flow id="14" begin="0" end="3600" period="225" from="-E9" to="E0" type="DEFAULT_VEHTYPE"/>
    <flow id="15" begin="0" end="3600" period="225" from="-E13" to="E8" type="DEFAULT_VEHTYPE"/>
    <flow id="16" begin="0" end="3600" period="225" from="-E2" to="E11" type="DEFAULT_VEHTYPE"/>
    <flow id="17" begin="0" end="3600" period="225" from="-E12" to="E0" type="DEFAULT_VEHTYPE"/>
    <flow id="18" begin="0" end="3600" period="225" from="B3A3" to="E12" type="DEFAULT_VEHTYPE"/>
    <flow id="19" begin="0" end="3600" period="225" from="B0C0" to="E2" type="DEFAULT_VEHTYPE"/>
    <flow id="20" begin="0" end="3600" period="225" from="-E15" to="E5" type="DEFAULT_VEHTYPE"/>
    <flow id="21" begin="0" end="3600" period="225" from="B2B3" to="E3" type="DEFAULT_VEHTYPE"/>
    <flow id="22" begin="0" end="3600" period="225" from="-E15" to="E5" type="DEFAULT_VEHTYPE"/>
    <flow id="23" begin="0" end="3600" period="225" from="-E7" to="E12" type="DEFAULT_VEHTYPE"/>
    <flow id="24" begin="0" end="3600" period="225" from="-E2" to="E11" type="DEFAULT_VEHTYPE"/>
    <flow id="25" begin="0" end="3600" period="225" from="-E0" to="E10" type="DEFAULT_VEHTYPE"/>
    <flow id="26" begin="0" end="3600" period="225" from="-E6" to="E14" type="DEFAULT_VEHTYPE"/>
    <flow id="27" begin="0" end="3600" period="225" from="-E4" to="E1" type="DEFAULT_VEHTYPE"/>
    <flow id="28" begin="0" end="3600" period="225" from="-E1" to="E11" type="DEFAULT_VEHTYPE"/>
    <flow id="29" begin="0" end="3600" period="225" from="-E9" to="E14" type="DEFAULT_VEHTYPE"/>
    <flow id="30" begin="0" end="3600" period="225" from="-E15" to="E8" type="DEFAULT_VEHTYPE"/>
    <flow id="31" begin="0" end="3600" period="225" from="-E0" to="E9" type="DEFAULT_VEHTYPE"/>
    <flow id="32" begin="0" end="3600" period="225" from="-E5" to="E9" type="DEFAULT_VEHTYPE"/>
    <flow id="33" begin="0" end="3600" period="225" from="-E12" to="E7" type="DEFAULT_VEHTYPE"/>
    <flow id="34" begin="0" end="3600" period="225" from="-E8" to="E15" type="DEFAULT_VEHTYPE"/>
    <flow id="35" begin="0" end="3600" period="225" from="-E0" to="E4" type="DEFAULT_VEHTYPE"/>
    <flow id="36" begin="0" end="3600" period="225" from="-E9" to="E11" type="DEFAULT_VEHTYPE"/>
    <flow id="37" begin="0" end="3600" period="225" from="-E14" to="E5" type="DEFAULT_VEHTYPE"/>
    <flow id="38" begin="0" end="3600" period="225" from="-E12" to="E9" type="DEFAULT_VEHTYPE"/>
    <flow id="39" begin="0" end="3600" period="225" from="-E12" to="E15" type="DEFAULT_VEHTYPE"/>
    <flow id="40" begin="0" end="3600" period="225" from="-E1" to="E6" type="DEFAULT_VEHTYPE"/>
    <flow id="41" begin="0" end="3600" period="225" from="-E10" to="E1" type="DEFAULT_VEHTYPE"/>
    <flow id="42" begin="0" end="3600" period="225" from="-E11" to="E0" type="DEFAULT_VEHTYPE"/>
    <flow id="43" begin="0" end="3600" period="225" from="D0C0" to="E14" type="DEFAULT_VEHTYPE"/>
    <flow id="44" begin="0" end="3600" period="225" from="-E6" to="E1" type="DEFAULT_VEHTYPE"/>
    <flow id="45" begin="0" end="3600" period="225" from="-E6" to="E0" type="DEFAULT_VEHTYPE"/>
    <flow id="46" begin="0" end="3600" period="225" from="-E3" to="E10" type="DEFAULT_VEHTYPE"/>
    <flow id="47" begin="0" end="3600" period="225" from="-E10" to="E0" type="DEFAULT_VEHTYPE"/>
    <flow id="48" begin="0" end="3600" period="225" from="-E0" to="E8" type="DEFAULT_VEHTYPE"/>
    <flow id="49" begin="0" end="3600" period="225" from="-E12" to="E2" type="DEFAULT_VEHTYPE"/>
    <flow id="50" begin="0" end="3600" period="225" from="-E3" to="E9" type="DEFAULT_VEHTYPE"/>
    <flow id="51" begin="0" end="3600" period="225" from="-E13" to="E8" type="DEFAULT_VEHTYPE"/>
    <flow id="52" begin="0" end="3600" period="225" from="-E7" to="E0" type="DEFAULT_VEHTYPE"/>
    <flow id="53" begin="0" end="3600" period="225" from="-E13" to="E4" type="DEFAULT_VEHTYPE"/>
    <flow id="54" begin="0" end="3600" period="225" from="-E15" to="E4" type="DEFAULT_VEHTYPE"/>
    <flow id="55" begin="0" end="3600" period="225" from="-E11" to="E5" type="DEFAULT_VEHTYPE"/>
    <flow id="56" begin="0" end="3600" period="225" from="-E9" to="E2" type="DEFAULT_VEHTYPE"/>
    <flow id="57" begin="0" end="3600" period="225" from="-E10" to="E14" type="DEFAULT_VEHTYPE"/>
    <flow id="58" begin="0" end="3600" period="225" from="-E14" to="E11" type="DEFAULT_VEHTYPE"/>
    <flow id="59" begin="0" end="3600" period="225" from="-E0" to="E9" type="DEFAULT_VEHTYPE"/>
    <flow id="60" begin="0" end="3600" period="225" from="-E14" to="E5" type="DEFAULT_VEHTYPE"/>
    <flow id="61" begin="0" end="3600" period="225" from="-E10" to="E5" type="DEFAULT_VEHTYPE"/>
    <flow id="62" begin="0" end="3600" period="225" from="D0C0" to="E12" type="DEFAULT_VEHTYPE"/>
    <flow id="63" begin="0" end="3600" period="225" from="-E10" to="D1D0" type="DEFAULT_VEHTYPE"/>
    <flow id="64" begin="0" end="3600" period="225" from="-E4" to="E14" type="DEFAULT_VEHTYPE"/>
    <flow id="65" begin="0" end="3600" period="225" from="-E15" to="E2" type="DEFAULT_VEHTYPE"/>
    <flow id="66" begin="0" end="3600" period="225" from="-E6" to="E2" type="DEFAULT_VEHTYPE"/>
    <flow id="67" begin="0" end="3600" period="225" from="-E10" to="E2" type="DEFAULT_VEHTYPE"/>
    <flow id="68" begin="0" end="3600" period="225" from="-E13" to="E4" type="DEFAULT_VEHTYPE"/>
    <flow id="69" begin="0" end="3600" period="225" from="-E7" to="E11" type="DEFAULT_VEHTYPE"/>
    <flow id="70" begin="0" end="3600" period="225" from="-E15" to="E10" type="DEFAULT_VEHTYPE"/>
    <flow id="71" begin="0" end="3600" period="225" from="-E3" to="E12" type="DEFAULT_VEHTYPE"/>
    <flow id="72" begin="0" end="3600" period="225" from="-E3" to="E1" type="DEFAULT_VEHTYPE"/>
    <flow id="73" begin="0" end="3600" period="225" from="-E14" to="E4" type="DEFAULT_VEHTYPE"/>
    <flow id="74" begin="0" end="3600" period="225" from="-E4" to="E10" type="DEFAULT_VEHTYPE"/>
    <flow id="75" begin="0" end="3600" period="225" from="-E3" to="E15" type="DEFAULT_VEHTYPE"/>
    <flow id="76" begin="0" end="3600" period="225" from="-E7" to="E2" type="DEFAULT_VEHTYPE"/>
    <flow id="77" begin="0" end="3600" period="225" from="-E13" to="E7" type="DEFAULT_VEHTYPE"/>
    <flow id="78" begin="0" end="3600" period="225" from="-E12" to="E3" type="DEFAULT_VEHTYPE"/>
    <flow id="79" begin="0" end="3600" period="225" from="-E10" to="E0" type="DEFAULT_VEHTYPE"/>
    <flow id="80" begin="0" end="3600" period="225" from="-E3" to="E9" type="DEFAULT_VEHTYPE"/>
    <flow id="81" begin="0" end="3600" period="225" from="-E12" to="E2" type="DEFAULT_VEHTYPE"/>
    <flow id="82" begin="0" end="3600" period="225" from="-E2" to="E15" type="DEFAULT_VEHTYPE"/>
    <flow id="83" begin="0" end="3600" period="225" from="-E12" to="E8" type="DEFAULT_VEHTYPE"/>
    <flow id="84" begin="0" end="3600" period="225" from="-E9" to="E15" type="DEFAULT_VEHTYPE"/>
    <flow id="85" begin="0" end="3600" period="225" from="-E1" to="E10" type="DEFAULT_VEHTYPE"/>
    <flow id="86" begin="0" end="3600" period="225" from="-E1" to="E13" type="DEFAULT_VEHTYPE"/>
    <flow id="87" begin="0" end="3600" period="225" from="-E4" to="E7" type="DEFAULT_VEHTYPE"/>
    <flow id="88" begin="0" end="3600" period="225" from="-E2" to="E10" type="DEFAULT_VEHTYPE"/>
    <flow id="89" begin="0" end="3600" period="225" from="-E3" to="E15" type="DEFAULT_VEHTYPE"/>
    <flow id="90" begin="0" end="3600" period="225" from="-E2" to="E7" type="DEFAULT_VEHTYPE"/>
    <flow id="91" begin="0" end="3600" period="225" from="-E8" to="E5" type="DEFAULT_VEHTYPE"/>
    <flow id="92" begin="0" end="3600" period="225" from="-E3" to="E9" type="DEFAULT_VEHTYPE"/>
    <flow id="93" begin="0" end="3600" period="225" from="-E8" to="E0" type="DEFAULT_VEHTYPE"/>
    <flow id="94" begin="0" end="3600" period="225" from="-E9" to="E0" type="DEFAULT_VEHTYPE"/>
    <flow id="95" begin="0" end="3600" period="225" from="-E13" to="E3" type="DEFAULT_VEHTYPE"/>
    <flow id="96" begin="0" end="3600" period="225" from="-E10" to="E4" type="DEFAULT_VEHTYPE"/>
    <flow id="97" begin="0" end="3600" period="225" from="-E5" to="E8" type="DEFAULT_VEHTYPE"/>
    <flow id="98" begin="0" end="3600" period="225" from="-E0" to="E7" type="DEFAULT_VEHTYPE"/>
    <flow id="99" begin="0" end="3600" period="225" from="-E9" to="E4" type="DEFAULT_VEHTYPE"/>
    <flow id="100" begin="0" end="3600" period="225" from="-E7" to="E3" type="DEFAULT_VEHTYPE"/>
    <flow id="101" begin="0" end="3600" period="225" from="-E3" to="E10" type="DEFAULT_VEHTYPE"/>
    <flow id="102" begin="0" end="3600" period="225" from="-E8" to="E6" type="DEFAULT_VEHTYPE"/>
    <flow id="103" begin="0" end="3600" period="225" from="-E1" to="E4" type="DEFAULT_VEHTYPE"/>
    <flow id="104" begin="0" end="3600" period="225" from="-E12" to="E8" type="DEFAULT_VEHTYPE"/>
    <flow id="105" begin="0" end="3600" period="225" from="-E1" to="E11" type="DEFAULT_VEHTYPE"/>
    <flow id="106" begin="0" end="3600" period="225" from="-E10" to="E14" type="DEFAULT_VEHTYPE"/>
    <flow id="107" begin="0" end="3600" period="225" from="-E1" to="E5" type="DEFAULT_VEHTYPE"/>
    <flow id="108" begin="0" end="3600" period="225" from="-E11" to="E2" type="DEFAULT_VEHTYPE"/>
    <flow id="109" begin="0" end="3600" period="225" from="-E14" to="E6" type="DEFAULT_VEHTYPE"/>
    <flow id="110" begin="0" end="3600" period="225" from="-E5" to="E11" type="DEFAULT_VEHTYPE"/>
    <flow id="111" begin="0" end="3600" period="225" from="-E10" to="E6" type="DEFAULT_VEHTYPE"/>
    <flow id="112" begin="0" end="3600" period="225" from="-E13" to="E1" type="DEFAULT_VEHTYPE"/>
    <flow id="113" begin="0" end="3600" period="225" from="-E2" to="E7" type="DEFAULT_VEHTYPE"/>
    <flow id="114" begin="0" end="3600" period="225" from="-E12" to="E5" type="DEFAULT_VEHTYPE"/>
    <flow id="115" begin="0" end="3600" period="225" from="-E2" to="E14" type="DEFAULT_VEHTYPE"/>
    <flow id="116" begin="0" end="3600" period="225" from="-E3" to="E0" type="DEFAULT_VEHTYPE"/>
    <flow id="117" begin="0" end="3600" period="225" from="-E13" to="E2" type="DEFAULT_VEHTYPE"/>
    <flow id="118" begin="0" end="3600" period="225" from="-E3" to="E14" type="DEFAULT_VEHTYPE"/>
    <flow id="119" begin="0" end="3600" period="225" from="-E5" to="E12" type="DEFAULT_VEHTYPE"/>
    <flow id="120" begin="0" end="3600" period="225" from="-E3" to="E6" type="DEFAULT_VEHTYPE"/>
    <flow id="121" begin="0" end="3600" period="225" from="-E2" to="E15" type="DEFAULT_VEHTYPE"/>
    <flow id="122" begin="0" end="3600" period="225" from="-E13" to="E6" type="DEFAULT_VEHTYPE"/>
    <flow id="123" begin="0" end="3600" period="225" from="-E6" to="E2" type="DEFAULT_VEHTYPE"/>
    <flow id="124" begin="0" end="3600" period="225" from="-E2" to="E14" type="DEFAULT_VEHTYPE"/>
    <flow id="125" begin="0" end="3600" period="225" from="-E5" to="E13" type="DEFAULT_VEHTYPE"/>
    <flow id="126" begin="0" end="3600" period="225" from="-E6" to="E1" type="DEFAULT_VEHTYPE"/>
    <flow id="127" begin="0" end="3600" period="225" from="-E15" to="E9" type="DEFAULT_VEHTYPE"/>
    <flow id="128" begin="0" end="3600" period="225" from="-E7" to="E4" type="DEFAULT_VEHTYPE"/>
    <flow id="129" begin="0" end="3600" period="225" from="-E6" to="E13" type="DEFAULT_VEHTYPE"/>
    <flow id="130" begin="0" end="3600" period="225" from="-E3" to="E10" type="DEFAULT_VEHTYPE"/>
    <flow id="131" begin="0" end="3600" period="225" from="-E14" to="E8" type="DEFAULT_VEHTYPE"/>
    <flow id="132" begin="0" end="3600" period="225" from="-E8" to="E13" type="DEFAULT_VEHTYPE"/>
    <flow id="133" begin="0" end="3600" period="225" from="-E3" to="C0B0" type="DEFAULT_VEHTYPE"/>
    <flow id="134" begin="0" end="3600" period="225" from="-E7" to="E3" type="DEFAULT_VEHTYPE"/>
    <flow id="135" begin="0" end="3600" period="225" from="-E0" to="E10" type="DEFAULT_VEHTYPE"/>
    <flow id="136" begin="0" end="3600" period="225" from="-E6" to="E8" type="DEFAULT_VEHTYPE"/>
    <flow id="137" begin="0" end="3600" period="225" from="-E7" to="E11" type="DEFAULT_VEHTYPE"/>
    <flow id="138" begin="0" end="3600" period="225" from="-E1" to="E10" type="DEFAULT_VEHTYPE"/>
    <flow id="139" begin="0" end="3600" period="225" from="-E7" to="E13" type="DEFAULT_VEHTYPE"/>
    <flow id="140" begin="0" end="3600" period="225" from="A3A2" to="E12" type="DEFAULT_VEHTYPE"/>
    <flow id="141" begin="0" end="3600" period="225" from="-E10" to="E1" type="DEFAULT_VEHTYPE"/>
    <flow id="142" begin="0" end="3600" period="225" from="-E1" to="E4" type="DEFAULT_VEHTYPE"/>
    <flow id="143" begin="0" end="3600" period="225" from="-E14" to="E3" type="DEFAULT_VEHTYPE"/>
    <flow id="144" begin="0" end="3600" period="225" from="-E1" to="E8" type="DEFAULT_VEHTYPE"/>
    <flow id="145" begin="0" end="3600" period="225" from="-E7" to="E11" type="DEFAULT_VEHTYPE"/>
    <flow id="146" begin="0" end="3600" period="225" from="-E3" to="E15" type="DEFAULT_VEHTYPE"/>
    <flow id="147" begin="0" end="3600" period="225" from="-E9" to="E12" type="DEFAULT_VEHTYPE"/>
    <flow id="148" begin="0" end="3600" period="225" from="-E7" to="E4" type="DEFAULT_VEHTYPE"/>
    <flow id="149" begin="0" end="3600" period="225" from="-E7" to="E13" type="DEFAULT_VEHTYPE"/>
</routes>
