<?xml version="1.0" encoding="UTF-8"?>

<!-- generated on 2026-03-02T21:23:11.763671+07:00 by Eclipse SUMO netedit 1.26.0
<neteditConfiguration xmlns:xsi="http://www.w3.org/2001/XMLSchema-instance" xsi:noNamespaceSchemaLocation="http://sumo.dlr.de/xsd/neteditConfiguration.xsd">

    <input>
        <sumocfg-file value="D:\coding\new_env\new_env\maps\map_grid_tuned\run.sumocfg"/>
        <route-files value="D:\coding\new_env\new_env\maps\map_grid_tuned\map_grid.rou.xml"/>
        <sumo-net-file value="D:\coding\new_env\new_env\maps\map_grid_tuned\map_grid.net.xml"/>
    </input>

    <output>
        <output-file value="D:\coding\new_env\new_env\maps\map_grid_tuned\map_grid.net.xml"/>
    </output>

    <processing>
        <geometry.min-radius.fix.railways value="false"/>
        <geometry.avoid-overlap value="false"/>
        <geometry.max-grade.fix value="false"/>
        <offset.disable-normalization value="true"/>
        <lefthand value="0"/>
    </processing>

    <junctions>
        <no-turnarounds value="true"/>
        <junctions.corner-detail value="5"/>
        <junctions.limit-turn-speed value="5.50"/>
        <rectangular-lane-cut value="0"/>
    </junctions>

    <pedestrian>
        <walkingareas value="0"/>
    </pedestrian>

</neteditConfiguration>
-->

<net version="1.20" junctionCornerDetail="5" limitTurnSpeed="5.50" avoidOverlap="0" xmlns:xsi="http://www.w3.org/2001/XMLSchema-instance" xsi:noNamespaceSchemaLocation="http://sumo.dlr.de/xsd/net_file.xsd">

    <location netOffset="0.00,0.00" convBoundary="-568.48,-425.29,1025.20,942.90" origBoundary="0.00,0.00,600.00,600.00" projParameter="!"/>

    <edge id=":A0_0" function="internal">
        <lane id=":A0_0_0" index="0" speed="6.59" length="9.17" shape="-361.90,-247.07 -362.26,-249.58 -363.31,-251.38 -365.06,-252.48 -367.51,-252.87"/>
    </edge>
    <edge id=":A0_1" function="internal">
        <lane id=":A0_1_0" index="0" speed="13.89" length="27.64" shape="-361.90,-247.07 -361.57,-274.80"/>
        <lane id=":A0_1_1" index="1" speed="13.89" length="27.64" shape="-358.70,-247.08 -358.37,-274.72"/>
        <lane id=":A0_1_2" index="2" speed="13.89" length="27.64" shape="-355.50,-247.09 -355.18,-274.63"/>
    </edge>
    <edge id=":A0_4" function="internal">
        <lane id=":A0_4_0" index="0" speed="10.41" length="5.49" shape="-355.50,-247.09 -354.73,-252.53"/>
    </edge>
    <edge id=":A0_20" function="internal">
        <lane id=":A0_20_0" index="0" speed="10.41" length="19.26" shape="-354.73,-252.53 -354.56,-253.75 -351.67,-258.51 -346.84,-261.37 -340.06,-262.34"/>
    </edge>
    <edge id=":A0_5" function="internal">
        <lane id=":A0_5_0" index="0" speed="6.58" length="9.27" shape="-340.03,-252.74 -342.61,-252.39 -344.44,-251.33 -345.54,-249.58 -345.90,-247.13"/>
    </edge>
    <edge id=":A0_6" function="internal">
        <lane id=":A0_6_0" index="0" speed="13.89" length="27.43" shape="-340.03,-252.74 -367.51,-252.87"/>
        <lane id=":A0_6_1" index="1" speed="13.89" length="27.43" shape="-340.04,-255.94 -367.47,-256.07"/>
        <lane id=":A0_6_2" index="2" speed="13.89" length="27.43" shape="-340.05,-259.14 -367.43,-259.27"/>
    </edge>
    <edge id=":A0_9" function="internal">
        <lane id=":A0_9_0" index="0" speed="10.32" length="5.27" shape="-340.05,-259.14 -345.27,-259.88"/>
    </edge>
    <edge id=":A0_21" function="internal">
        <lane id=":A0_21_0" index="0" speed="10.32" length="19.59" shape="-345.27,-259.88 -346.82,-260.09 -351.60,-262.99 -354.39,-267.84 -355.18,-274.63"/>
    </edge>
    <edge id=":A0_10" function="internal">
        <lane id=":A0_10_0" index="0" speed="6.44" length="9.03" shape="-345.58,-274.37 -345.29,-271.90 -344.28,-270.14 -342.54,-269.09 -340.08,-268.74"/>
    </edge>
    <edge id=":A0_11" function="internal">
        <lane id=":A0_11_0" index="0" speed="13.89" length="27.35" shape="-345.58,-274.37 -345.90,-247.13"/>
        <lane id=":A0_11_1" index="1" speed="13.89" length="27.35" shape="-348.78,-274.46 -349.10,-247.11"/>
        <lane id=":A0_11_2" index="2" speed="13.89" length="27.35" shape="-351.98,-274.55 -352.30,-247.10"/>
    </edge>
    <edge id=":A0_14" function="internal">
        <lane id=":A0_14_0" index="0" speed="10.46" length="4.66" shape="-351.98,-274.55 -352.74,-269.94"/>
    </edge>
    <edge id=":A0_22" function="internal">
        <lane id=":A0_22_0" index="0" speed="10.46" length="20.04" shape="-352.74,-269.94 -353.10,-267.79 -356.05,-262.99 -360.83,-260.15 -367.43,-259.27"/>
    </edge>
    <edge id=":A0_15" function="internal">
        <lane id=":A0_15_0" index="0" speed="6.65" length="9.38" shape="-367.31,-268.87 -364.86,-269.21 -363.09,-270.32 -361.99,-272.18 -361.57,-274.80"/>
    </edge>
    <edge id=":A0_16" function="internal">
        <lane id=":A0_16_0" index="0" speed="13.89" length="27.28" shape="-367.31,-268.87 -340.08,-268.74"/>
        <lane id=":A0_16_1" index="1" speed="13.89" length="27.28" shape="-367.35,-265.67 -340.07,-265.54"/>
        <lane id=":A0_16_2" index="2" speed="13.89" length="27.28" shape="-367.39,-262.47 -340.06,-262.34"/>
    </edge>
    <edge id=":A0_19" function="internal">
        <lane id=":A0_19_0" index="0" speed="10.42" length="4.73" shape="-367.39,-262.47 -362.72,-261.74"/>
    </edge>
    <edge id=":A0_23" function="internal">
        <lane id=":A0_23_0" index="0" speed="10.42" length="19.74" shape="-362.72,-261.74 -360.81,-261.44 -356.10,-258.53 -353.26,-253.75 -352.30,-247.10"/>
    </edge>
    <edge id=":A1_0" function="internal">
        <lane id=":A1_0_0" index="0" speed="6.71" length="9.51" shape="-338.96,122.51 -341.49,122.89 -343.32,124.01 -344.43,125.87 -344.84,128.48"/>
    </edge>
    <edge id=":A1_1" function="internal">
        <lane id=":A1_1_0" index="0" speed="13.89" length="27.39" shape="-338.96,122.51 -366.36,122.54"/>
        <lane id=":A1_1_1" index="1" speed="13.89" length="27.39" shape="-338.97,119.31 -366.36,119.34"/>
        <lane id=":A1_1_2" index="2" speed="13.89" length="27.39" shape="-338.98,116.11 -366.36,116.14"/>
    </edge>
    <edge id=":A1_4" function="internal">
        <lane id=":A1_4_0" index="0" speed="10.37" length="5.07" shape="-338.98,116.11 -344.00,115.40"/>
    </edge>
    <edge id=":A1_20" function="internal">
        <lane id=":A1_20_0" index="0" speed="10.37" length="19.48" shape="-344.00,115.40 -345.63,115.18 -350.39,112.33 -353.26,107.58 -354.23,100.91"/>
    </edge>
    <edge id=":A1_5" function="internal">
        <lane id=":A1_5_0" index="0" speed="6.52" length="9.07" shape="-344.63,100.88 -344.27,103.35 -343.21,105.11 -341.46,106.16 -339.01,106.51"/>
    </edge>
    <edge id=":A1_6" function="internal">
        <lane id=":A1_6_0" index="0" speed="13.89" length="27.53" shape="-344.63,100.88 -344.84,128.48"/>
        <lane id=":A1_6_1" index="1" speed="13.89" length="27.53" shape="-347.83,100.89 -348.04,128.42"/>
        <lane id=":A1_6_2" index="2" speed="13.89" length="27.53" shape="-351.03,100.90 -351.24,128.36"/>
    </edge>
    <edge id=":A1_9" function="internal">
        <lane id=":A1_9_0" index="0" speed="10.38" length="5.38" shape="-351.03,100.90 -351.78,106.23"/>
    </edge>
    <edge id=":A1_21" function="internal">
        <lane id=":A1_21_0" index="0" speed="10.38" length="19.29" shape="-351.78,106.23 -351.97,107.57 -354.83,112.34 -359.63,115.19 -366.36,116.14"/>
    </edge>
    <edge id=":A1_10" function="internal">
        <lane id=":A1_10_0" index="0" speed="6.53" length="9.14" shape="-366.35,106.54 -363.84,106.19 -362.05,105.14 -360.98,103.39 -360.63,100.94"/>
    </edge>
    <edge id=":A1_11" function="internal">
        <lane id=":A1_11_0" index="0" speed="13.89" length="27.35" shape="-366.35,106.54 -339.01,106.51"/>
        <lane id=":A1_11_1" index="1" speed="13.89" length="27.35" shape="-366.35,109.74 -339.00,109.71"/>
        <lane id=":A1_11_2" index="2" speed="13.89" length="27.35" shape="-366.36,112.94 -338.99,112.91"/>
    </edge>
    <edge id=":A1_14" function="internal">
        <lane id=":A1_14_0" index="0" speed="10.34" length="4.94" shape="-366.36,112.94 -361.47,113.64"/>
    </edge>
    <edge id=":A1_22" function="internal">
        <lane id=":A1_22_0" index="0" speed="10.34" length="19.79" shape="-361.47,113.64 -359.63,113.91 -354.87,116.80 -352.08,121.62 -351.24,128.36"/>
    </edge>
    <edge id=":A1_15" function="internal">
        <lane id=":A1_15_0" index="0" speed="6.47" length="9.03" shape="-360.84,128.17 -361.15,125.71 -362.17,123.95 -363.91,122.89 -366.36,122.54"/>
    </edge>
    <edge id=":A1_16" function="internal">
        <lane id=":A1_16_0" index="0" speed="13.89" length="27.31" shape="-360.84,128.17 -360.63,100.94"/>
        <lane id=":A1_16_1" index="1" speed="13.89" length="27.31" shape="-357.64,128.23 -357.43,100.93"/>
        <lane id=":A1_16_2" index="2" speed="13.89" length="27.31" shape="-354.44,128.29 -354.23,100.91"/>
    </edge>
    <edge id=":A1_19" function="internal">
        <lane id=":A1_19_0" index="0" speed="10.50" length="4.72" shape="-354.44,128.29 -353.70,123.64"/>
    </edge>
    <edge id=":A1_23" function="internal">
        <lane id=":A1_23_0" index="0" speed="10.50" length="20.03" shape="-353.70,123.64 -353.37,121.58 -350.43,116.78 -345.64,113.89 -338.99,112.91"/>
    </edge>
    <edge id=":A2_0" function="internal">
        <lane id=":A2_0_0" index="0" speed="6.59" length="9.19" shape="-367.40,489.32 -367.77,486.82 -368.83,485.02 -370.59,483.93 -373.05,483.54"/>
    </edge>
    <edge id=":A2_1" function="internal">
        <lane id=":A2_1_0" index="0" speed="13.89" length="27.53" shape="-367.40,489.32 -367.20,461.71"/>
        <lane id=":A2_1_1" index="1" speed="13.89" length="27.53" shape="-364.20,489.31 -364.00,461.77"/>
        <lane id=":A2_1_2" index="2" speed="13.89" length="27.53" shape="-361.00,489.30 -360.80,461.84"/>
    </edge>
    <edge id=":A2_4" function="internal">
        <lane id=":A2_4_0" index="0" speed="10.40" length="5.37" shape="-361.00,489.30 -360.26,483.98"/>
    </edge>
    <edge id=":A2_20" function="internal">
        <lane id=":A2_20_0" index="0" speed="10.40" length="19.32" shape="-360.26,483.98 -360.07,482.64 -357.20,477.88 -352.39,475.01 -345.65,474.04"/>
    </edge>
    <edge id=":A2_5" function="internal">
        <lane id=":A2_5_0" index="0" speed="6.56" length="9.20" shape="-345.62,483.64 -348.16,483.99 -349.97,485.05 -351.05,486.80 -351.40,489.26"/>
    </edge>
    <edge id=":A2_6" function="internal">
        <lane id=":A2_6_0" index="0" speed="13.89" length="27.39" shape="-345.62,483.64 -373.05,483.54"/>
        <lane id=":A2_6_1" index="1" speed="13.89" length="27.39" shape="-345.63,480.44 -373.02,480.34"/>
        <lane id=":A2_6_2" index="2" speed="13.89" length="27.39" shape="-345.64,477.24 -372.99,477.14"/>
    </edge>
    <edge id=":A2_9" function="internal">
        <lane id=":A2_9_0" index="0" speed="10.33" length="5.23" shape="-345.64,477.24 -350.82,476.51"/>
    </edge>
    <edge id=":A2_21" function="internal">
        <lane id=":A2_21_0" index="0" speed="10.33" length="19.53" shape="-350.82,476.51 -352.38,476.29 -357.15,473.41 -359.96,468.59 -360.80,461.84"/>
    </edge>
    <edge id=":A2_10" function="internal">
        <lane id=":A2_10_0" index="0" speed="6.46" length="9.03" shape="-351.20,462.02 -350.89,464.48 -349.87,466.24 -348.13,467.29 -345.67,467.64"/>
    </edge>
    <edge id=":A2_11" function="internal">
        <lane id=":A2_11_0" index="0" speed="13.89" length="27.31" shape="-351.20,462.02 -351.40,489.26"/>
        <lane id=":A2_11_1" index="1" speed="13.89" length="27.31" shape="-354.40,461.96 -354.60,489.27"/>
        <lane id=":A2_11_2" index="2" speed="13.89" length="27.31" shape="-357.60,461.90 -357.80,489.28"/>
    </edge>
    <edge id=":A2_14" function="internal">
        <lane id=":A2_14_0" index="0" speed="10.43" length="4.74" shape="-357.60,461.90 -358.34,466.57"/>
    </edge>
    <edge id=":A2_22" function="internal">
        <lane id=":A2_22_0" index="0" speed="10.43" length="19.92" shape="-358.34,466.57 -358.67,468.62 -361.59,473.41 -366.37,476.25 -372.99,477.14"/>
    </edge>
    <edge id=":A2_15" function="internal">
        <lane id=":A2_15_0" index="0" speed="6.61" length="9.28" shape="-372.89,467.54 -370.44,467.20 -368.68,466.11 -367.59,464.29 -367.20,461.71"/>
    </edge>
    <edge id=":A2_16" function="internal">
        <lane id=":A2_16_0" index="0" speed="13.89" length="27.27" shape="-372.89,467.54 -345.67,467.64"/>
        <lane id=":A2_16_1" index="1" speed="13.89" length="27.27" shape="-372.93,470.74 -345.66,470.84"/>
        <lane id=":A2_16_2" index="2" speed="13.89" length="27.27" shape="-372.96,473.94 -345.65,474.04"/>
    </edge>
    <edge id=":A2_19" function="internal">
        <lane id=":A2_19_0" index="0" speed="10.42" length="4.78" shape="-372.96,473.94 -368.24,474.67"/>
    </edge>
    <edge id=":A2_23" function="internal">
        <lane id=":A2_23_0" index="0" speed="10.42" length="19.74" shape="-368.24,474.67 -366.35,474.96 -361.62,477.85 -358.77,482.63 -357.80,489.28"/>
    </edge>
    <edge id=":A3_0" function="internal">
        <lane id=":A3_0_0" index="0" speed="6.57" length="9.18" shape="-366.08,814.96 -366.44,812.49 -367.52,810.73 -369.31,809.66 -371.81,809.30"/>
    </edge>
    <edge id=":A3_1" function="internal">
        <lane id=":A3_1_0" index="0" speed="13.89" length="27.26" shape="-366.08,814.96 -366.17,787.71"/>
        <lane id=":A3_1_1" index="1" speed="13.89" length="27.26" shape="-362.88,814.95 -362.97,787.69"/>
        <lane id=":A3_1_2" index="2" speed="13.89" length="27.26" shape="-359.68,814.94 -359.77,787.68"/>
    </edge>
    <edge id=":A3_4" function="internal">
        <lane id=":A3_4_0" index="0" speed="10.36" length="4.98" shape="-359.68,814.94 -358.99,810.01"/>
    </edge>
    <edge id=":A3_20" function="internal">
        <lane id=":A3_20_0" index="0" speed="10.36" length="19.52" shape="-358.99,810.01 -358.74,808.30 -355.91,803.54 -351.17,800.68 -344.52,799.71"/>
    </edge>
    <edge id=":A3_5" function="internal">
        <lane id=":A3_5_0" index="0" speed="6.51" length="9.03" shape="-344.49,809.31 -346.94,809.66 -348.69,810.72 -349.73,812.47 -350.08,814.92"/>
    </edge>
    <edge id=":A3_6" function="internal">
        <lane id=":A3_6_0" index="0" speed="13.89" length="27.30" shape="-344.49,809.31 -371.81,809.30"/>
        <lane id=":A3_6_1" index="1" speed="13.89" length="27.30" shape="-344.50,806.11 -371.80,806.10"/>
        <lane id=":A3_6_2" index="2" speed="13.89" length="27.30" shape="-344.51,802.91 -371.79,802.90"/>
    </edge>
    <edge id=":A3_9" function="internal">
        <lane id=":A3_9_0" index="0" speed="10.38" length="5.11" shape="-344.51,802.91 -349.57,802.20"/>
    </edge>
    <edge id=":A3_21" function="internal">
        <lane id=":A3_21_0" index="0" speed="10.38" length="19.46" shape="-349.57,802.20 -351.16,801.97 -355.92,799.12 -358.79,794.36 -359.77,787.68"/>
    </edge>
    <edge id=":A3_10" function="internal">
        <lane id=":A3_10_0" index="0" speed="6.53" length="9.10" shape="-350.17,787.64 -349.81,790.13 -348.75,791.90 -347.00,792.96 -344.54,793.31"/>
    </edge>
    <edge id=":A3_11" function="internal">
        <lane id=":A3_11_0" index="0" speed="13.89" length="27.28" shape="-350.17,787.64 -350.08,814.92"/>
        <lane id=":A3_11_1" index="1" speed="13.89" length="27.28" shape="-353.37,787.65 -353.28,814.93"/>
        <lane id=":A3_11_2" index="2" speed="13.89" length="27.28" shape="-356.57,787.67 -356.48,814.94"/>
    </edge>
    <edge id=":A3_14" function="internal">
        <lane id=":A3_14_0" index="0" speed="10.35" length="5.04" shape="-356.57,787.67 -357.26,792.66"/>
    </edge>
    <edge id=":A3_22" function="internal">
        <lane id=":A3_22_0" index="0" speed="10.35" length="19.56" shape="-357.26,792.66 -357.49,794.35 -360.34,799.12 -365.11,801.97 -371.79,802.90"/>
    </edge>
    <edge id=":A3_15" function="internal">
        <lane id=":A3_15_0" index="0" speed="6.49" length="9.03" shape="-371.76,793.30 -369.30,792.96 -367.55,791.91 -366.51,790.16 -366.17,787.71"/>
    </edge>
    <edge id=":A3_16" function="internal">
        <lane id=":A3_16_0" index="0" speed="13.89" length="27.23" shape="-371.76,793.30 -344.54,793.31"/>
        <lane id=":A3_16_1" index="1" speed="13.89" length="27.23" shape="-371.77,796.50 -344.53,796.51"/>
        <lane id=":A3_16_2" index="2" speed="13.89" length="27.23" shape="-371.78,799.70 -344.52,799.71"/>
    </edge>
    <edge id=":A3_19" function="internal">
        <lane id=":A3_19_0" index="0" speed="10.40" length="4.93" shape="-371.78,799.70 -366.90,800.41"/>
    </edge>
    <edge id=":A3_23" function="internal">
        <lane id=":A3_23_0" index="0" speed="10.40" length="19.66" shape="-366.90,800.41 -365.10,800.67 -360.32,803.54 -357.45,808.29 -356.48,814.94"/>
    </edge>
    <edge id=":B0_0" function="internal">
        <lane id=":B0_0_0" index="0" speed="6.53" length="9.09" shape="21.15,-248.23 20.79,-250.71 19.73,-252.48 17.98,-253.54 15.53,-253.89"/>
    </edge>
    <edge id=":B0_1" function="internal">
        <lane id=":B0_1_0" index="0" speed="13.89" length="27.28" shape="21.15,-248.23 21.12,-275.53"/>
        <lane id=":B0_1_1" index="1" speed="13.89" length="27.28" shape="24.35,-248.25 24.32,-275.52"/>
        <lane id=":B0_1_2" index="2" speed="13.89" length="27.28" shape="27.55,-248.26 27.52,-275.52"/>
    </edge>
    <edge id=":B0_4" function="internal">
        <lane id=":B0_4_0" index="0" speed="10.35" length="5.10" shape="27.55,-248.26 28.25,-253.31"/>
    </edge>
    <edge id=":B0_20" function="internal">
        <lane id=":B0_20_0" index="0" speed="10.35" length="19.49" shape="28.25,-253.31 28.48,-254.94 31.33,-259.70 36.09,-262.55 42.77,-263.48"/>
    </edge>
    <edge id=":B0_5" function="internal">
        <lane id=":B0_5_0" index="0" speed="6.49" length="9.03" shape="42.74,-253.88 40.29,-253.54 38.54,-252.50 37.49,-250.75 37.15,-248.29"/>
    </edge>
    <edge id=":B0_6" function="internal">
        <lane id=":B0_6_0" index="0" speed="13.89" length="27.23" shape="42.74,-253.88 15.53,-253.89"/>
        <lane id=":B0_6_1" index="1" speed="13.89" length="27.23" shape="42.75,-257.08 15.52,-257.09"/>
        <lane id=":B0_6_2" index="2" speed="13.89" length="27.23" shape="42.76,-260.28 15.51,-260.29"/>
    </edge>
    <edge id=":B0_9" function="internal">
        <lane id=":B0_9_0" index="0" speed="10.38" length="4.93" shape="42.76,-260.28 37.88,-260.99"/>
    </edge>
    <edge id=":B0_21" function="internal">
        <lane id=":B0_21_0" index="0" speed="10.38" length="19.63" shape="37.88,-260.99 36.09,-261.26 31.32,-264.12 28.47,-268.87 27.52,-275.52"/>
    </edge>
    <edge id=":B0_10" function="internal">
        <lane id=":B0_10_0" index="0" speed="6.53" length="9.10" shape="37.12,-275.50 37.47,-273.05 38.54,-271.30 40.31,-270.24 42.79,-269.88"/>
    </edge>
    <edge id=":B0_11" function="internal">
        <lane id=":B0_11_0" index="0" speed="13.89" length="27.23" shape="37.12,-275.50 37.15,-248.29"/>
        <lane id=":B0_11_1" index="1" speed="13.89" length="27.23" shape="33.92,-275.51 33.95,-248.28"/>
        <lane id=":B0_11_2" index="2" speed="13.89" length="27.23" shape="30.72,-275.51 30.75,-248.27"/>
    </edge>
    <edge id=":B0_14" function="internal">
        <lane id=":B0_14_0" index="0" speed="10.38" length="4.92" shape="30.72,-275.51 30.02,-270.64"/>
    </edge>
    <edge id=":B0_22" function="internal">
        <lane id=":B0_22_0" index="0" speed="10.38" length="19.59" shape="30.02,-270.64 29.76,-268.87 26.91,-264.12 22.16,-261.26 15.51,-260.29"/>
    </edge>
    <edge id=":B0_15" function="internal">
        <lane id=":B0_15_0" index="0" speed="6.54" length="9.09" shape="15.48,-269.89 17.94,-270.25 19.71,-271.31 20.77,-273.07 21.12,-275.53"/>
    </edge>
    <edge id=":B0_16" function="internal">
        <lane id=":B0_16_0" index="0" speed="13.89" length="27.29" shape="15.48,-269.89 42.79,-269.88"/>
        <lane id=":B0_16_1" index="1" speed="13.89" length="27.29" shape="15.49,-266.69 42.78,-266.68"/>
        <lane id=":B0_16_2" index="2" speed="13.89" length="27.29" shape="15.50,-263.49 42.77,-263.48"/>
    </edge>
    <edge id=":B0_19" function="internal">
        <lane id=":B0_19_0" index="0" speed="10.38" length="5.11" shape="15.50,-263.49 20.56,-262.78"/>
    </edge>
    <edge id=":B0_23" function="internal">
        <lane id=":B0_23_0" index="0" speed="10.38" length="19.46" shape="20.56,-262.78 22.15,-262.55 26.91,-259.71 29.78,-254.94 30.75,-248.27"/>
    </edge>
    <edge id=":B1_0" function="internal">
        <lane id=":B1_0_0" index="0" speed="6.66" length="9.39" shape="43.98,121.37 41.49,121.73 39.70,122.84 38.61,124.69 38.21,127.29"/>
    </edge>
    <edge id=":B1_1" function="internal">
        <lane id=":B1_1_0" index="0" speed="13.89" length="27.32" shape="43.98,121.37 16.68,121.36"/>
        <lane id=":B1_1_1" index="1" speed="13.89" length="27.32" shape="43.99,118.17 16.67,118.16"/>
        <lane id=":B1_1_2" index="2" speed="13.89" length="27.32" shape="44.00,114.97 16.66,114.96"/>
    </edge>
    <edge id=":B1_4" function="internal">
        <lane id=":B1_4_0" index="0" speed="10.39" length="4.89" shape="44.00,114.97 39.16,114.26"/>
    </edge>
    <edge id=":B1_20" function="internal">
        <lane id=":B1_20_0" index="0" speed="10.39" length="19.61" shape="39.16,114.26 37.38,113.99 32.64,111.13 29.79,106.37 28.82,99.72"/>
    </edge>
    <edge id=":B1_5" function="internal">
        <lane id=":B1_5_0" index="0" speed="6.54" length="9.09" shape="38.42,99.69 38.78,102.16 39.83,103.94 41.58,105.00 44.03,105.37"/>
    </edge>
    <edge id=":B1_6" function="internal">
        <lane id=":B1_6_0" index="0" speed="13.89" length="27.53" shape="38.42,99.69 38.21,127.29"/>
        <lane id=":B1_6_1" index="1" speed="13.89" length="27.53" shape="35.22,99.70 35.01,127.23"/>
        <lane id=":B1_6_2" index="2" speed="13.89" length="27.53" shape="32.02,99.71 31.81,127.16"/>
    </edge>
    <edge id=":B1_9" function="internal">
        <lane id=":B1_9_0" index="0" speed="10.40" length="5.36" shape="32.02,99.71 31.27,105.02"/>
    </edge>
    <edge id=":B1_21" function="internal">
        <lane id=":B1_21_0" index="0" speed="10.40" length="19.33" shape="31.27,105.02 31.08,106.37 28.21,111.13 23.40,113.99 16.66,114.96"/>
    </edge>
    <edge id=":B1_10" function="internal">
        <lane id=":B1_10_0" index="0" speed="6.56" length="9.20" shape="16.63,105.36 19.17,105.01 20.98,103.95 22.07,102.20 22.42,99.75"/>
    </edge>
    <edge id=":B1_11" function="internal">
        <lane id=":B1_11_0" index="0" speed="13.89" length="27.38" shape="16.63,105.36 44.03,105.37"/>
        <lane id=":B1_11_1" index="1" speed="13.89" length="27.38" shape="16.64,108.56 44.02,108.57"/>
        <lane id=":B1_11_2" index="2" speed="13.89" length="27.38" shape="16.65,111.76 44.01,111.77"/>
    </edge>
    <edge id=":B1_14" function="internal">
        <lane id=":B1_14_0" index="0" speed="10.33" length="5.11" shape="16.65,111.76 21.71,112.47"/>
    </edge>
    <edge id=":B1_22" function="internal">
        <lane id=":B1_22_0" index="0" speed="10.33" length="19.65" shape="21.71,112.47 23.39,112.71 28.16,115.59 30.97,120.41 31.81,127.16"/>
    </edge>
    <edge id=":B1_15" function="internal">
        <lane id=":B1_15_0" index="0" speed="6.46" length="9.03" shape="22.21,126.98 21.90,124.52 20.88,122.76 19.14,121.71 16.68,121.36"/>
    </edge>
    <edge id=":B1_16" function="internal">
        <lane id=":B1_16_0" index="0" speed="13.89" length="27.31" shape="22.21,126.98 22.42,99.75"/>
        <lane id=":B1_16_1" index="1" speed="13.89" length="27.31" shape="25.41,127.04 25.62,99.73"/>
        <lane id=":B1_16_2" index="2" speed="13.89" length="27.31" shape="28.61,127.10 28.82,99.72"/>
    </edge>
    <edge id=":B1_19" function="internal">
        <lane id=":B1_19_0" index="0" speed="10.46" length="4.74" shape="28.61,127.10 29.35,122.42"/>
    </edge>
    <edge id=":B1_23" function="internal">
        <lane id=":B1_23_0" index="0" speed="10.46" length="19.96" shape="29.35,122.42 29.68,120.37 32.60,115.57 37.38,112.70 44.01,111.77"/>
    </edge>
    <edge id=":B2_0" function="internal">
        <lane id=":B2_0_0" index="0" speed="6.53" length="9.10" shape="15.65,488.16 15.29,485.67 14.23,483.90 12.48,482.84 10.02,482.49"/>
    </edge>
    <edge id=":B2_1" function="internal">
        <lane id=":B2_1_0" index="0" speed="13.89" length="27.53" shape="15.65,488.16 15.85,460.55"/>
        <lane id=":B2_1_1" index="1" speed="13.89" length="27.53" shape="18.85,488.14 19.05,460.61"/>
        <lane id=":B2_1_2" index="2" speed="13.89" length="27.53" shape="22.05,488.13 22.25,460.67"/>
    </edge>
    <edge id=":B2_4" function="internal">
        <lane id=":B2_4_0" index="0" speed="10.37" length="5.41" shape="22.05,488.13 22.79,482.77"/>
    </edge>
    <edge id=":B2_20" function="internal">
        <lane id=":B2_20_0" index="0" speed="10.37" length="19.25" shape="22.79,482.77 22.98,481.45 25.84,476.68 30.63,473.83 37.35,472.90"/>
    </edge>
    <edge id=":B2_5" function="internal">
        <lane id=":B2_5_0" index="0" speed="6.51" length="9.10" shape="37.32,482.50 34.83,482.84 33.05,483.88 31.99,485.63 31.65,488.09"/>
    </edge>
    <edge id=":B2_6" function="internal">
        <lane id=":B2_6_0" index="0" speed="13.89" length="27.31" shape="37.32,482.50 10.02,482.49"/>
        <lane id=":B2_6_1" index="1" speed="13.89" length="27.31" shape="37.33,479.30 10.01,479.29"/>
        <lane id=":B2_6_2" index="2" speed="13.89" length="27.31" shape="37.34,476.10 10.00,476.09"/>
    </edge>
    <edge id=":B2_9" function="internal">
        <lane id=":B2_9_0" index="0" speed="10.34" length="4.90" shape="37.34,476.10 32.49,475.39"/>
    </edge>
    <edge id=":B2_21" function="internal">
        <lane id=":B2_21_0" index="0" speed="10.34" length="19.80" shape="32.49,475.39 30.63,475.11 25.88,472.21 23.09,467.40 22.25,460.67"/>
    </edge>
    <edge id=":B2_10" function="internal">
        <lane id=":B2_10_0" index="0" speed="6.47" length="9.03" shape="31.85,460.85 32.16,463.31 33.18,465.08 34.91,466.14 37.37,466.50"/>
    </edge>
    <edge id=":B2_11" function="internal">
        <lane id=":B2_11_0" index="0" speed="13.89" length="27.31" shape="31.85,460.85 31.65,488.09"/>
        <lane id=":B2_11_1" index="1" speed="13.89" length="27.31" shape="28.65,460.79 28.45,488.10"/>
        <lane id=":B2_11_2" index="2" speed="13.89" length="27.31" shape="25.45,460.73 25.25,488.12"/>
    </edge>
    <edge id=":B2_14" function="internal">
        <lane id=":B2_14_0" index="0" speed="10.49" length="4.70" shape="25.45,460.73 24.71,465.38"/>
    </edge>
    <edge id=":B2_22" function="internal">
        <lane id=":B2_22_0" index="0" speed="10.49" length="20.02" shape="24.71,465.38 24.38,467.43 21.44,472.23 16.65,475.12 10.00,476.09"/>
    </edge>
    <edge id=":B2_15" function="internal">
        <lane id=":B2_15_0" index="0" speed="6.71" length="9.49" shape="9.97,466.49 12.50,466.12 14.33,465.00 15.44,463.14 15.85,460.55"/>
    </edge>
    <edge id=":B2_16" function="internal">
        <lane id=":B2_16_0" index="0" speed="13.89" length="27.37" shape="9.97,466.49 37.37,466.50"/>
        <lane id=":B2_16_1" index="1" speed="13.89" length="27.37" shape="9.98,469.69 37.36,469.70"/>
        <lane id=":B2_16_2" index="2" speed="13.89" length="27.37" shape="9.99,472.89 37.35,472.90"/>
    </edge>
    <edge id=":B2_19" function="internal">
        <lane id=":B2_19_0" index="0" speed="10.38" length="5.10" shape="9.99,472.89 15.05,473.60"/>
    </edge>
    <edge id=":B2_23" function="internal">
        <lane id=":B2_23_0" index="0" speed="10.38" length="19.47" shape="15.05,473.60 16.64,473.83 21.40,476.67 24.27,481.44 25.25,488.12"/>
    </edge>
    <edge id=":B3_0" function="internal">
        <lane id=":B3_0_0" index="0" speed="6.58" length="9.21" shape="17.06,813.90 16.68,811.38 15.61,809.59 13.83,808.52 11.36,808.16"/>
    </edge>
    <edge id=":B3_1" function="internal">
        <lane id=":B3_1_0" index="0" speed="13.89" length="27.34" shape="17.06,813.90 16.88,786.54"/>
        <lane id=":B3_1_1" index="1" speed="13.89" length="27.34" shape="20.26,813.88 20.08,786.53"/>
        <lane id=":B3_1_2" index="2" speed="13.89" length="27.34" shape="23.46,813.85 23.28,786.52"/>
    </edge>
    <edge id=":B3_4" function="internal">
        <lane id=":B3_4_0" index="0" speed="10.35" length="5.08" shape="23.46,813.85 24.13,808.81"/>
    </edge>
    <edge id=":B3_20" function="internal">
        <lane id=":B3_20_0" index="0" speed="10.35" length="19.57" shape="24.13,808.81 24.36,807.14 27.19,802.36 31.96,799.50 38.66,798.57"/>
    </edge>
    <edge id=":B3_5" function="internal">
        <lane id=":B3_5_0" index="0" speed="6.48" length="9.03" shape="38.63,808.17 36.17,808.51 34.43,809.56 33.39,811.31 33.06,813.77"/>
    </edge>
    <edge id=":B3_6" function="internal">
        <lane id=":B3_6_0" index="0" speed="13.89" length="27.29" shape="38.63,808.17 11.36,808.16"/>
        <lane id=":B3_6_1" index="1" speed="13.89" length="27.29" shape="38.64,804.97 11.35,804.96"/>
        <lane id=":B3_6_2" index="2" speed="13.89" length="27.29" shape="38.65,801.77 11.34,801.76"/>
    </edge>
    <edge id=":B3_9" function="internal">
        <lane id=":B3_9_0" index="0" speed="10.42" length="4.94" shape="38.65,801.77 33.76,801.06"/>
    </edge>
    <edge id=":B3_21" function="internal">