<?xml version="1.0" encoding="UTF-8"?>

<!-- generated on 2026-03-10 07:47:03.967833 by Eclipse SUMO randomTrips.py v1.26.0
<configuration>
    <net-file value="map_grid.net.xml"/>
    <route-file value="map_grid.rou.xml"/>
    <trip-attributes value="type=&quot;DEFAULT_VEHTYPE&quot;"/>
    <lanes value="True"/>
    <fringe-factor value="100"/>
    <random value="True"/>
    <min-distance value="800.0"/>
    <maxtries value="250"/>
    <period value="1.5"/>
    <flows value="1"/>
</configuration>
-->

<routes xmlns:xsi="http://www.w3.org/2001/XMLSchema-instance" xsi:noNamespaceSchemaLocation="http://sumo.dlr.de/xsd/routes_file.xsd">
    <flow id="0" begin="0" end="3600" period="1.5" from="-E3" to="E1" type="DEFAULT_VEHTYPE"/>
</routes>
