<?xml version="1.0" encoding="UTF-8"?>

<!-- generated on 2026-01-21 20:24:01.341416 by Eclipse SUMO osmWebWizard.py v1.25.0
<configuration>
    <net-file value="/home/hoeman/Sumo/2026-01-21-20-23-38/osm.net.xml.gz"/>
    <output-trip-file value="/home/hoeman/Sumo/2026-01-21-20-23-38/osm.passenger.trips.xml"/>
    <route-file value="/home/hoeman/Sumo/2026-01-21-20-23-38/osm.passenger.rou.xml"/>
    <prefix value="veh"/>
    <trip-attributes value="departLane=&quot;best&quot;"/>
    <fringe-start-attributes value="departSpeed=&quot;max&quot;"/>
    <vehicle-class value="passenger"/>
    <lanes value="True"/>
    <fringe-factor value="20"/>
    <allow-fringe.min-length value="1000.0"/>
    <edge-permission value="passenger"/>
    <via-edge-types value="highway.motorway,highway.motorway_link,highway.trunk_link,highway.primary_link,highway.secondary_link,highway.tertiary_link"/>
    <seed value="43"/>
    <min-distance value="300.0"/>
    <min-distance.fringe value="10.0"/>
    <remove-loops value="True"/>
    <insertion-density value="80.0"/>
</configuration>
-->

<routes xmlns:xsi="http://www.w3.org/2001/XMLSchema-instance" xsi:noNamespaceSchemaLocation="http://sumo.dlr.de/xsd/routes_file.xsd">
    <vType id="veh_passenger" vClass="passenger"/>
    <trip id="veh0" depart="0.00" from="-11656313" to="1364938278" departLane="best" type="veh_passenger" departSpeed="max"/>
    <trip id="veh1" depart="0.33" from="-11664626#2" to="11655844#1" departLane="best" type="veh_passenger"/>
    <trip id="veh2" depart="0.66" from="11677123#1" to="26966898" departLane="best" type="veh_passenger"/>
    <trip id="veh3" depart="1.00" from="11661792#0" to="11656514#2" departLane="best" type="veh_passenger"/>
    <trip id="veh4" depart="1.33" from="-11655766#4" to="1036472421" departLane="best" type="veh_passenger"/>
    <trip id="veh5" depart="1.66" from="11651841#0" to="38913001#1" departLane="best" type="veh_passenger" departSpeed="max"/>
    <trip id="veh6" depart="1.99" from="11671017#3" to="26604431" departLane="best" type="veh_passenger"/>
    <trip id="veh7" depart="2.32" from="11660605" to="-11670152#2" departLane="best" type="veh_passenger"/>
    <trip id="veh8" depart="2.66" from="60731677#0" to="26966898" departLane="best" type="veh_passenger"/>
    <trip id="veh9" depart="2.99" from="11665824#1" to="11656514#2" departLane="best" type="veh_passenger"/>
    <trip id="veh10" depart="3.32" from="42681424" to="11670035#0" departLane="best" type="veh_passenger" departSpeed="max"/>
    <trip id="veh11" depart="3.65" from="11664626#0" to="11664514#10" departLane="best" type="veh_passenger" departSpeed="max"/>
    <trip id="veh12" depart="3.99" from="11651841#0" to="-11656715" departLane="best" type="veh_passenger" departSpeed="max"/>
    <trip id="veh13" depart="4.32" from="-11656514#2" to="420607256" departLane="best" type="veh_passenger" departSpeed="max"/>
    <trip id="veh14" depart="4.65" from="568983121" to="-11677123#0" departLane="best" type="veh_passenger" departSpeed="max"/>
    <trip id="veh15" depart="4.98" from="735481000#0" to="11658557#1" departLane="best" type="veh_passenger" departSpeed="max"/>
    <trip id="veh16" depart="5.31" from="-11661792#1" to="38913001#1" departLane="best" type="veh_passenger" departSpeed="max"/>
    <trip id="veh17" depart="5.65" from="11673816#0" to="420601177#1" departLane="best" type="veh_passenger" departSpeed="max"/>
    <trip id="veh18" depart="5.98" from="11677169" to="-11662458#0" departLane="best" type="veh_passenger" departSpeed="max"/>
    <trip id="veh19" depart="6.31" from="11675009" to="26966898" departLane="best" type="veh_passenger"/>
    <trip id="veh20" depart="6.64" from="787115922#0" to="-1369337803" departLane="best" type="veh_passenger" departSpeed="max"/>
    <trip id="veh21" depart="6.97" from="11666162#0" to="1369337800" departLane="best" type="veh_passenger" departSpeed="max"/>
    <trip id="veh22" depart="7.31" from="-11671654#1" to="38913001#1" departLane="best" type="veh_passenger"/>
    <trip id="veh23" depart="7.64" from="42681424" to="-11656843" departLane="best" type="veh_passenger" departSpeed="max"/>
    <trip id="veh24" depart="7.97" from="11673816#0" to="-421154581" departLane="best" type="veh_passenger" departSpeed="max"/>
    <trip id="veh25" depart="8.30" from="-11673475#1" to="11670789#1" departLane="best" type="veh_passenger" departSpeed="max"/>
    <trip id="veh26" depart="8.64" from="851965846" to="11661792#1" departLane="best" type="veh_passenger" departSpeed="max"/>
    <trip id="veh27" depart="8.97" from="42681424" to="60731677#0" departLane="best" type="veh_passenger" departSpeed="max"/>
    <trip id="veh28" depart="9.30" from="262807627#2" to="-11656514#0" departLane="best" type="veh_passenger"/>
    <trip id="veh29" depart="9.63" from="851965846" to="11670152#1" departLane="best" type="veh_passenger" departSpeed="max"/>
    <trip id="veh30" depart="9.96" from="-11658557#1" to="-11664599#0" departLane="best" type="veh_passenger" departSpeed="max"/>
    <trip id="veh31" depart="10.30" from="-11665843#9" to="26966898" departLane="best" type="veh_passenger"/>
    <trip id="veh32" depart="10.63" from="-11661792#1" to="11660605" departLane="best" type="veh_passenger" departSpeed="max"/>
    <trip id="veh33" depart="10.96" from="11661643#0" to="-11656514#0" departLane="best" type="veh_passenger" departSpeed="max"/>
    <trip id="veh34" depart="11.29" from="-1118564707#0" to="38913007#1" departLane="best" type="veh_passenger"/>
    <trip id="veh35" depart="11.62" from="851965846" to="-11664599#0" departLane="best" type="veh_passenger" departSpeed="max"/>
    <trip id="veh36" depart="11.96" from="421154578#1" to="682353414" departLane="best" type="veh_passenger"/>
    <trip id="veh37" depart="12.29" from="787115922#0" to="38913007#1" departLane="best" type="veh_passenger" departSpeed="max"/>
    <trip id="veh38" depart="12.62" from="-658163848#2" to="1369337806#1" departLane="best" type="veh_passenger" departSpeed="max"/>
    <trip id="veh39" depart="12.95" from="11664626#0" to="420607256" departLane="best" type="veh_passenger" departSpeed="max"/>
    <trip id="veh40" depart="13.28" from="262807627#0" to="38913001#1" departLane="best" type="veh_passenger" departSpeed="max"/>
    <trip id="veh41" depart="13.62" from="60731689" to="-608280503#0" departLane="best" type="veh_passenger"/>
    <trip id="veh42" depart="13.95" from="262807627#0" to="-11662458#0" departLane="best" type="veh_passenger" departSpeed="max"/>
    <trip id="veh43" depart="14.28" from="-11673824#2" to="420607256" departLane="best" type="veh_passenger"/>
    <trip id="veh44" depart="14.61" from="11673310#2" to="-11675395#1" departLane="best" type="veh_passenger"/>
    <trip id="veh45" depart="14.95" from="11673816#0" to="38913007#1" departLane="best" type="veh_passenger" departSpeed="max"/>
    <trip id="veh46" depart="15.28" from="-608280503#4" to="-262807627#0" departLane="best" type="veh_passenger"/>
    <trip id="veh47" depart="15.61" from="-11673475#1" to="-11670789#1" departLane="best" type="veh_passenger" departSpeed="max"/>
    <trip id="veh48" depart="15.94" from="42681430" to="1369337805" departLane="best" type="veh_passenger" departSpeed="max"/>
    <trip id="veh49" depart="16.27" from="851965846" to="11675781#5" departLane="best" type="veh_passenger" departSpeed="max"/>
    <trip id="veh50" depart="16.61" from="851965843" to="-11673816#0" departLane="best" type="veh_passenger" departSpeed="max"/>
    <trip id="veh51" depart="16.94" from="-11673475#1" to="-11673791#6" departLane="best" type="veh_passenger" departSpeed="max"/>
    <trip id="veh52" depart="17.27" from="11655766#0" to="682353414" departLane="best" type="veh_passenger" departSpeed="max"/>
    <trip id="veh53" depart="17.60" from="-11675781#5" to="11655844#0" departLane="best" type="veh_passenger" departSpeed="max"/>
    <trip id="veh54" depart="17.93" from="-11656514#2" to="-11655766#0" departLane="best" type="veh_passenger" departSpeed="max"/>
    <trip id="veh55" depart="18.27" from="11665278#1" to="38913007#1" departLane="best" type="veh_passenger"/>
    <trip id="veh56" depart="18.60" from="608280503#0" to="60730904#0" departLane="best" type="veh_passenger" departSpeed="max"/>
    <trip id="veh57" depart="18.93" from="11673791#2" to="-11675435#0" departLane="best" type="veh_passenger"/>
    <trip id="veh58" depart="19.26" from="-11662458#2" to="26604431" departLane="best" type="veh_passenger" departSpeed="max"/>
    <trip id="veh59" depart="19.60" from="-11665843#9" to="-11651841#0" departLane="best" type="veh_passenger"/>
    <trip id="veh60" depart="19.93" from="1445437373" to="-11664599#0" departLane="best" type="veh_passenger"/>
    <trip id="veh61" depart="20.26" from="11674210#4" to="-11673310#0" departLane="best" type="veh_passenger"/>
    <trip id="veh62" depart="20.59" from="11657904#0" to="-11651841#0" departLane="best" type="veh_passenger" departSpeed="max"/>
    <trip id="veh63" depart="20.92" from="-1369337804" to="-11664626#0" departLane="best" type="veh_passenger"/>
    <trip id="veh64" depart="21.26" from="-11673791#5" to="-11656514#0" departLane="best" type="veh_passenger"/>
    <trip id="veh65" depart="21.59" from="-1369337806#1" to="1364944594" departLane="best" type="veh_passenger" departSpeed="max"/>
    <trip id="veh66" depart="21.92" from="-1369337806#1" to="11673824#1" departLane="best" type="veh_passenger" departSpeed="max"/>
    <trip id="veh67" depart="22.25" from="-11657372" to="1369337803" departLane="best" type="veh_passenger" departSpeed="max"/>
    <trip id="veh68" depart="22.58" from="-11664520#0" to="-11673816#0" departLane="best" type="veh_passenger"/>
    <trip id="veh69" depart="22.92" from="420601177#0" to="11656313" departLane="best" type="veh_passenger"/>
    <trip id="veh70" depart="23.25" from="11675781#0" to="-11676498#0" departLane="best" type="veh_passenger"/>
    <trip id="veh71" depart="23.58" from="11664520#1" to="11651841#2" departLane="best" type="veh_passenger"/>
    <trip id="veh72" depart="23.91" from="11672071#0" to="38913001#1" departLane="best" type="veh_passenger"/>
    <trip id="veh73" depart="24.25" from="11674210#0" to="206312202#1" departLane="best" type="veh_passenger" departSpeed="max"/>
    <trip id="veh74" depart="24.58" from="11665843#3" to="11664514#10" departLane="best" type="veh_passenger"/>
    <trip id="veh75" depart="24.91" from="-11674210#3" to="420601177#1" departLane="best" type="veh_passenger"/>
    <trip id="veh76" depart="25.24" from="11675435#1" to="26966898" departLane="best" type="veh_passenger"/>
    <trip id="veh77" depart="25.57" from="11673901#1" to="-11655766#0" departLane="best" type="veh_passenger"/>
    <trip id="veh78" depart="25.91" from="-11661792#1" to="38913001#1" departLane="best" type="veh_passenger" departSpeed="max"/>
    <trip id="veh79" depart="26.24" from="206312202#1" to="38913007#1" departLane="best" type="veh_passenger"/>
    <trip id="veh80" depart="26.57" from="787115922#0" to="-11673816#0" departLane="best" type="veh_passenger" departSpeed="max"/>
    <trip id="veh81" depart="26.90" from="851965846" to="11672071#1" departLane="best" type="veh_passenger" departSpeed="max"/>
    <trip id="veh82" depart="27.23" from="420601177#0" to="11658557#0" departLane="best" type="veh_passenger"/>
    <trip id="veh83" depart="27.57" from="-1369337799" to="11656514#1" departLane="best" type="veh_passenger"/>
    <trip id="veh84" depart="27.90" from="-658163848#2" to="11651841#2" departLane="best" type="veh_passenger" departSpeed="max"/>
    <trip id="veh85" depart="28.23" from="-1369337806#1" to="-11664626#0" departLane="best" type="veh_passenger" departSpeed="max"/>
    <trip id="veh86" depart="28.56" from="42681430" to="-359415372#2" departLane="best" type="veh_passenger" departSpeed="max"/>
    <trip id="veh87" depart="28.89" from="1053593991#0" to="26966898" departLane="best" type="veh_passenger"/>
    <trip id="veh88" depart="29.23" from="-420607256" to="26966898" departLane="best" type="veh_passenger" departSpeed="max"/>
    <trip id="veh89" depart="29.56" from="-11676498#1" to="11655844#1" departLane="best" type="veh_passenger"/>
    <trip id="veh90" depart="29.89" from="11651841#0" to="682353414" departLane="best" type="veh_passenger" departSpeed="max"/>
    <trip id="veh91" depart="30.22" from="-11677123#2" to="11665843#5" departLane="best" type="veh_passenger" departSpeed="max"/>
    <trip id="veh92" depart="30.56" from="11666162#0" to="-11656514#1" departLane="best" type="veh_passenger" departSpeed="max"/>
    <trip id="veh93" depart="30.89" from="-11673310#3" to="38913007#1" departLane="best" type="veh_passenger"/>
    <trip id="veh94" depart="31.22" from="42681424" to="-11673791#1" departLane="best" type="veh_passenger" departSpeed="max"/>
    <trip id="veh95" depart="31.55" from="-11673159#4" to="420607256" departLane="best" type="veh_passenger"/>
    <trip id="veh96" depart="31.88" from="11673816#0" to="1369337806#1" departLane="best" type="veh_passenger" departSpeed="max"/>
    <trip id="veh97" depart="32.22" from="851965843" to="-11675395#2" departLane="best" type="veh_passenger" departSpeed="max"/>
    <trip id="veh98" depart="32.55" from="11664626#0" to="38913007#1" departLane="best" type="veh_passenger" departSpeed="max"/>
    <trip id="veh99" depart="32.88" from="-11673475#1" to="-11674210#0" departLane="best" type="veh_passenger" departSpeed="max"/>
    <trip id="veh100" depart="33.21" from="735481000#0" to="38913001#1" departLane="best" type="veh_passenger" departSpeed="max"/>
    <trip id="veh101" depart="33.54" from="11665843#1" to="-11664626#0" departLane="best" type="veh_passenger"/>
    <trip id="veh102" depart="33.88" from="568983121" to="-11677123#1" departLane="best" type="veh_passenger" departSpeed="max"/>
    <trip id="veh103" depart="34.21" from="42681424" to="-11674210#0" departLane="best" type="veh_passenger" departSpeed="max"/>
    <trip id="veh104" depart="34.54" from="-11665843#9" to="11677123#2" departLane="best" type="veh_passenger"/>
    <trip id="veh105" depart="34.87" from="11655766#0" to="-568983121" departLane="best" type="veh_passenger" departSpeed="max"/>
    <trip id="veh106" depart="35.21" from="11661643#0" to="11655844#1" departLane="best" type="veh_passenger" departSpeed="max"/>
    <trip id="veh107" depart="35.54" from="11662601#2" to="11673824#11" departLane="best" type="veh_passenger"/>
    <trip id="veh108" depart="35.87" from="11664599#0" to="26966898" departLane="best" type="veh_passenger" departSpeed="max"/>
    <trip id="veh109" depart="36.20" from="-1369337806#1" to="11675781#5" departLane="best" type="veh_passenger" departSpeed="max"/>
    <trip id="veh110" depart="36.53" from="-11673824#2" to="1364944594" departLane="best" type="veh_passenger"/>
    <trip id="veh111" depart="36.87" from="-787115922#2" to="-11661643#0" departLane="best" type="veh_passenger"/>
    <trip id="veh112" depart="37.20" from="-658163848#2" to="-11656514#0" departLane="best" type="veh_passenger" departSpeed="max"/>
    <trip id="veh113" depart="37.53" from="735481000#1" to="38913001#1" departLane="best" type="veh_passenger"/>
    <trip id="veh114" depart="37.86" from="-11673824#11" to="38913001#1" departLane="best" type="veh_passenger"/>
    <trip id="veh115" depart="38.19" from="11657110" to="-11657904#0" departLane="best" type="veh_passenger"/>
    <trip id="veh116" depart="38.53" from="11675435#0" to="-11661643#0" departLane="best" type="veh_passenger" departSpeed="max"/>
    <trip id="veh117" depart="38.86" from="787115922#0" to="420601177#0" departLane="best" type="veh_passenger" departSpeed="max"/>
    <trip id="veh118" depart="39.19" from="42681424" to="-11656514#0" departLane="best" type="veh_passenger" departSpeed="max"/>
    <trip id="veh119" depart="39.52" from="-11661792#1" to="-11677123#0" departLane="best" type="veh_passenger" departSpeed="max"/>
    <trip id="veh120" depart="39.85" from="-11657372" to="38913001#1" departLane="best" type="veh_passenger" departSpeed="max"/>
    <trip id="veh121" depart="40.19" from="11677123#0" to="26966898" departLane="best" type="veh_passenger" departSpeed="max"/>
    <trip id="veh122" depart="40.52" from="-1369337806#1" to="11671017#2" departLane="best" type="veh_passenger" departSpeed="max"/>
    <trip id="veh123" depart="40.85" from="42681430" to="11673475#0" departLane="best" type="veh_passenger" departSpeed="max"/>
    <trip id="veh124" depart="41.18" from="-420607256" to="26966898" departLane="best" type="veh_passenger" departSpeed="max"/>
    <trip id="veh125" depart="41.52" from="11656514#0" to="11673475#1" departLane="best" type="veh_passenger" departSpeed="max"/>
    <trip id="veh126" depart="41.85" from="60731677#0" to="11675781#2" departLane="best" type="veh_passenger"/>
    <trip id="veh127" depart="42.18" from="11662458#0" to="11665843#1" departLane="best" type="veh_passenger" departSpeed="max"/>
    <trip id="veh128" depart="42.51" from="-11673824#0" to="1036473516" departLane="best" type="veh_passenger"/>
    <trip id="veh129" depart="42.84" from="568983121" to="11656313" departLane="best" type="veh_passenger" departSpeed="max"/>
    <trip id="veh130" depart="43.18" from="-11655766#1" to="26966898" departLane="best" type="veh_passenger"/>
    <trip id="veh131" depart="43.51" from="-11665843#9" to="-11655766#3" departLane="best" type="veh_passenger"/>
    <trip id="veh132" depart="43.84" from="11673791#2" to="26966898" departLane="best" type="veh_passenger"/>
    <trip id="veh133" depart="44.17" from="-11661792#1" to="11651841#2" departLane="best" type="veh_passenger" departSpeed="max"/>
    <trip id="veh134" depart="44.50" from="11662458#0" to="-11664599#0" departLane="best" type="veh_passenger" departSpeed="max"/>
    <trip id="veh135" depart="44.84" from="11675435#0" to="-11674210#0" departLane="best" type="veh_passenger" departSpeed="max"/>
    <trip id="veh136" depart="45.17" from="1369337799" to="11657372" departLane="best" type="veh_passenger"/>
    <trip id="veh137" depart="45.50" from="42681424" to="-11651841#0" departLane="best" type="veh_passenger" departSpeed="max"/>
    <trip id="veh138" depart="45.83" from="-420607256" to="-11662458#0" departLane="best" type="veh_passenger" departSpeed="max"/>
    <trip id="veh139" depart="46.17" from="-11658557#1" to="-11651841#0" departLane="best" type="veh_passenger" departSpeed="max"/>
    <trip id="veh140" depart="46.50" from="11666162#0" to="-11661643#0" departLane="best" type="veh_passenger" departSpeed="max"/>
    <trip id="veh141" depart="46.83" from="-11661792#1" to="1036472421" departLane="best" type="veh_passenger" departSpeed="max"/>
    <trip id="veh142" depart="47.16" from="11677169" to="-11673310#0" departLane="best" type="veh_passenger" departSpeed="max"/>
    <trip id="veh143" depart="47.49" from="11676498#0" to="11662458#2" departLane="best" type="veh_passenger" departSpeed="max"/>
    <trip id="veh144" depart="47.83" from="851965843" to="26966898" departLane="best" type="veh_passenger" departSpeed="max"/>
    <trip id="veh145" depart="48.16" from="851965846" to="-359415372#10" departLane="best" type="veh_passenger" departSpeed="max"/>
    <trip id="veh146" depart="48.49" from="735481000#0" to="-11677169" departLane="best" type="veh_passenger" departSpeed="max"/>
    <trip id="veh147" depart="48.82" from="-1369337806#1" to="-787115922#0" departLane="best" type="veh_passenger" departSpeed="max"/>
    <trip id="veh148" depart="49.15" from="-11655844#1" to="206312202#1" departLane="best" type="veh_passenger" departSpeed="max"/>
    <trip id="veh149" depart="49.49" from="-11658557#1" to="11672074#0" departLane="best" type="veh_passenger" departSpeed="max"/>
    <trip id="veh150" depart="49.82" from="-11656514#2" to="-787115922#0" departLane="best" type="veh_passenger" departSpeed="max"/>
    <trip id="veh151" depart="50.15" from="-1364938278" to="420607256" departLane="best" type="veh_passenger"/>
    <trip id="veh152" depart="50.48" from="-420601166#1" to="-11664599#0" departLane="best" type="veh_passenger"/>
    <trip id="veh153" depart="50.82" from="11676498#0" to="-11677123#0" departLane="best" type="veh_passenger" departSpeed="max"/>
    <trip id="veh154" depart="51.15" from="-1369337806#1" to="-11677169" departLane="best" type="veh_passenger" departSpeed="max"/>
    <trip id="veh155" depart="51.48" from="-682353414" to="26966898" departLane="best" type="veh_passenger" departSpeed="max"/>
    <trip id="veh156" depart="51.81" from="-11675395#1" to="-11664599#0" departLane="best" type="veh_passenger"/>
    <trip id="veh157" depart="52.14" from="-658163848#2" to="11662458#2" departLane="best" type="veh_passenger" departSpeed="max"/>
    <trip id="veh158" depart="52.48" from="-1369337806#1" to="-11664514#1" departLane="best" type="veh_passenger" departSpeed="max"/>
    <trip id="veh159" depart="52.81" from="787115922#0" to="11651841#2" departLane="best" type="veh_passenger" departSpeed="max"/>
    <trip id="veh160" depart="53.14" from="11659994#1" to="-11670035#1" departLane="best" type="veh_passenger"/>
    <trip id="veh161" depart="53.47" from="-1369337803" to="11673475#1" departLane="best" type="veh_passenger"/>
    <trip id="veh162" depart="53.80" from="-11661792#0" to="-11677169" departLane="best" type="veh_passenger"/>
    <trip id="veh163" depart="54.14" from="-1369337806#1" to="26966898" departLane="best" type="veh_passenger" departSpeed="max"/>
    <trip id="veh164" depart="54.47" from="11674210#0" to="11657372" departLane="best" type="veh_passenger" departSpeed="max"/>
    <trip id="veh165" depart="54.80" from="11661643#0" to="11661792#1" departLane="best" type="veh_passenger" departSpeed="max"/>
    <trip id="veh166" depart="55.13" from="11664520#1" to="-11674210#3" departLane="best" type="veh_passenger"/>
    <trip id="veh167" depart="55.46" from="568983121" to="26966898" departLane="best" type="veh_passenger" departSpeed="max"/>
    <trip id="veh168" depart="55.80" from="11655766#0" to="-735481000#0" departLane="best" type="veh_passenger" departSpeed="max"/>
    <trip id="veh169" depart="56.13" from="851965843" to="-11655766#0" departLane="best" type="veh_passenger" departSpeed="max"/>
    <trip id="veh170" depart="56.46" from="42681424" to="-11666162#0" departLane="best" type="veh_passenger" departSpeed="max"/>
    <trip id="veh171" depart="56.79" from="-11673475#1" to="-262807627#0" departLane="best" type="veh_passenger" departSpeed="max"/>
    <trip id="veh172" depart="57.13" from="11675395#1" to="-11677169" departLane="best" type="veh_passenger"/>
    <trip id="veh173" depart="57.46" from="11665843#3" to="11657372" departLane="best" type="veh_passenger"/>
    <trip id="veh174" depart="57.79" from="851965843" to="11664514#7" departLane="best" type="veh_passenger" departSpeed="max"/>
    <trip id="veh175" depart="58.12" from="-1369337806#1" to="11673475#1" departLane="best" type="veh_passenger" departSpeed="max"/>
    <trip id="veh176" depart="58.45" from="11672994#1" to="-11677123#0" departLane="best" type="veh_passenger"/>
    <trip id="veh177" depart="58.79" from="420601166#1" to="-11651841#0" departLane="best" type="veh_passenger"/>
    <trip id="veh178" depart="59.12" from="851965846" to="38913001#1" departLane="best" type="veh_passenger" departSpeed="max"/>
    <trip id="veh179" depart="59.45" from="-11656514#2" to="1369337806#1" departLane="best" type="veh_passenger" departSpeed="max"/>
    <trip id="veh180" depart="59.78" from="-11662458#2" to="682353414" departLane="best" type="veh_passenger" departSpeed="max"/>
    <trip id="veh181" depart="60.11" from="11661785#0" to="26604431" departLane="best" type="veh_passenger"/>
    <trip id="veh182" depart="60.45" from="-1369337799" to="11673901#0" departLane="best" type="veh_passenger"/>
    <trip id="veh183" depart="60.78" from="-11655844#1" to="26966898" departLane="best" type="veh_passenger" departSpeed="max"/>
    <trip id="veh184" depart="61.11" from="-1369337806#1" to="-11670035#0" departLane="best" type="veh_passenger" departSpeed="max"/>
    <trip id="veh185" depart="61.44" from="11661643#0" to="11657110" departLane="best" type="veh_passenger" departSpeed="max"/>
    <trip id="veh186" depart="61.78" from="-11656313" to="-11666162#0" departLane="best" type="veh_passenger" departSpeed="max"/>
    <trip id="veh187" depart="62.11" from="206312202#1" to="-11664626#0" departLane="best" type="veh_passenger"/>
    <trip id="veh188" depart="62.44" from="42681430" to="-359415372#4" departLane="best" type="veh_passenger" departSpeed="max"/>
    <trip id="veh189" depart="62.77" from="851965846" to="-568983121" departLane="best" type="veh_passenger" departSpeed="max"/>
    <trip id="veh190" depart="63.10" from="11661643#0" to="-359415372#4" departLane="best" type="veh_passenger" departSpeed="max"/>
    <trip id="veh191" depart="63.44" from="-11658557#1" to="420601169#0" departLane="best" type="veh_passenger" departSpeed="max"/>
    <trip id="veh192" depart="63.77" from="11673816#0" to="26604431" departLane="best" type="veh_passenger" departSpeed="max"/>
    <trip id="veh193" depart="64.10" from="-11665843#9" to="11656514#1" departLane="best" type="veh_passenger"/>
    <trip id="veh194" depart="64.43" from="-1369337806#1" to="-11675435#0" departLane="best" type="veh_passenger" departSpeed="max"/>
    <trip id="veh195" depart="64.76" from="11655766#0" to="11673475#1" departLane="best" type="veh_passenger" departSpeed="max"/>
    <trip id="veh196" depart="65.10" from="11662458#0" to="1364938280" departLane="best" type="veh_passenger" departSpeed="max"/>
    <trip id="veh197" depart="65.43" from="851965846" to="11665826#3" departLane="best" type="veh_passenger" departSpeed="max"/>
    <trip id="veh198" depart="65.76" from="42681430" to="60730904#0" departLane="best" type="veh_passenger" departSpeed="max"/>
    <trip id="veh199" depart="66.09" from="851965846" to="-262807627#0" departLane="best" type="veh_passenger" departSpeed="max"/>
    <trip id="veh200" depart="66.42" from="568983121" to="1364938280" departLane="best" type="veh_passenger" departSpeed="max"/>
    <trip id="veh201" depart="66.76" from="-11655766#4" to="26966898" departLane="best" type="veh_passenger"/>
    <trip id="veh202" depart="67.09" from="787115922#0" to="38913007#1" departLane="best" type="veh_passenger" departSpeed="max"/>
    <trip id="veh203" depart="67.42" from="-658163848#2" to="26604431" departLane="best" type="veh_passenger" departSpeed="max"/>
    <trip id="veh204" depart="67.75" from="42681430" to="11651841#2" departLane="best" type="veh_passenger" departSpeed="max"/>
    <trip id="veh205" depart="68.09" from="11675435#0" to="-568983121" departLane="best" type="veh_passenger" departSpeed="max"/>
    <trip id="veh206" depart="68.42" from="851965843" to="11658557#1" departLane="best" type="veh_passenger" departSpeed="max"/>
    <trip id="veh207" depart="68.75" from="-11677123#2" to="-787115922#0" departLane="best" type="veh_passenger" departSpeed="max"/>
    <trip id="veh208" depart="69.08" from="-658163848#0" to="11673475#1" departLane="best" type="veh_passenger"/>
    <trip id="veh209" depart="69.41" from="-420607256" to="11656514#2" departLane="best" type="veh_passenger" departSpeed="max"/>
    <trip id="veh210" depart="69.75" from="-11661792#1" to="11656313" departLane="best" type="veh_passenger" departSpeed="max"/>
    <trip id="veh211" depart="70.08" from="-608280503#4" to="-568983121" departLane="best" type="veh_passenger"/>
    <trip id="veh212" depart="70.41" from="-11655844#1" to="682353414" departLane="best" type="veh_passenger" departSpeed="max"/>
    <trip id="veh213" depart="70.74" from="-11673901#0" to="-11651841#0" departLane="best" type="veh_passenger"/>
    <trip id="veh214" depart="71.07" from="11673816#0" to="-11656514#0" departLane="best" type="veh_passenger" departSpeed="max"/>
    <trip id="veh215" depart="71.41" from="11673310#0" to="38913007#1" departLane="best" type="veh_passenger" departSpeed="max"/>
    <trip id="veh216" depart="71.74" from="-11656514#2" to="11656313" departLane="best" type="veh_passenger" departSpeed="max"/>
    <trip id="veh217" depart="72.07" from="568983121" to="-11673824#5" departLane="best" type="veh_passenger" departSpeed="max"/>
    <trip id="veh218" depart="72.40" from="-11662601#0" to="-11657904#0" departLane="best" type="veh_passenger"/>
    <trip id="veh219" depart="72.74" from="1369337805" to="26604431" departLane="best" type="veh_passenger"/>
    <trip id="veh220" depart="73.07" from="11657904#0" to="-262807627#0" departLane="best" type="veh_passenger" departSpeed="max"/>
    <trip id="veh221" depart="73.40" from="851965846" to="-11674210#0" departLane="best" type="veh_passenger" departSpeed="max"/>
    <trip id="veh222" depart="73.73" from="42681430" to="26966898" departLane="best" type="veh_passenger" departSpeed="max"/>
    <trip id="veh223" depart="74.06" from="11661785#1" to="26966898" departLane="best" type="veh_passenger"/>
    <trip id="veh224" depart="74.40" from="-608280503#3" to="38913007#1" departLane="best" type="veh_passenger"/>
    <trip id="veh225" depart="74.73" from="42681424" to="11673310#2" departLane="best" type="veh_passenger" departSpeed="max"/>
    <trip id="veh226" depart="75.06" from="568983121" to="11675781#5" departLane="best" type="veh_passenger" departSpeed="max"/>
    <trip id="veh227" depart="75.39" from="11651841#0" to="420607256" departLane="best" type="veh_passenger" departSpeed="max"/>
    <trip id="veh228" depart="75.72" from="11661643#0" to="-11677169" departLane="best" type="veh_passenger" departSpeed="max"/>
    <trip id="veh229" depart="76.06" from="42681430" to="-262807627#0" departLane="best" type="veh_passenger" departSpeed="max"/>