<?xml version="1.0" encoding="UTF-8"?>

<!-- generated on 2026-01-21 20:24:00.649383 by Eclipse SUMO osmWebWizard.py v1.25.0
<configuration>
    <net-file value="/home/hoeman/Sumo/2026-01-21-20-23-38/osm.net.xml.gz"/>
    <output-trip-file value="/home/hoeman/Sumo/2026-01-21-20-23-38/osm.motorcycle.trips.xml"/>
    <route-file value="/home/hoeman/Sumo/2026-01-21-20-23-38/osm.motorcycle.rou.xml"/>
    <prefix value="motorcycle"/>
    <trip-attributes value="departLane=&quot;best&quot;"/>
    <fringe-start-attributes value="departSpeed=&quot;max&quot;"/>
    <vehicle-class value="motorcycle"/>
    <fringe-factor value="2"/>
    <edge-permission value="motorcycle"/>
    <via-edge-types value="highway.motorway,highway.motorway_link,highway.trunk_link,highway.primary_link,highway.secondary_link,highway.tertiary_link"/>
    <max-distance value="1200.0"/>
    <remove-loops value="True"/>
    <insertion-density value="4.0"/>
</configuration>
-->

<routes xmlns:xsi="http://www.w3.org/2001/XMLSchema-instance" xsi:noNamespaceSchemaLocation="http://sumo.dlr.de/xsd/routes_file.xsd">
    <vType id="motorcycle_motorcycle" vClass="motorcycle"/>
    <trip id="motorcycle0" depart="0.00" from="11665843#6" to="-11655766#4" departLane="best" type="motorcycle_motorcycle"/>
    <trip id="motorcycle1" depart="6.51" from="-11673815#1" to="-11672074#3" departLane="best" type="motorcycle_motorcycle"/>
    <trip id="motorcycle2" depart="13.01" from="11673791#1" to="11670035#1" departLane="best" type="motorcycle_motorcycle"/>
    <trip id="motorcycle3" depart="19.52" from="359415372#2" to="-11661832#0" departLane="best" type="motorcycle_motorcycle"/>
    <trip id="motorcycle4" depart="26.03" from="-420607256" to="-11655844#0" departLane="best" type="motorcycle_motorcycle" departSpeed="max"/>
    <trip id="motorcycle5" depart="32.53" from="-11672074#3" to="11651841#2" departLane="best" type="motorcycle_motorcycle"/>
    <trip id="motorcycle6" depart="39.04" from="-11672074#3" to="11661832#0" departLane="best" type="motorcycle_motorcycle"/>
    <trip id="motorcycle7" depart="45.55" from="11675435#0" to="-1118564707#0" departLane="best" type="motorcycle_motorcycle" departSpeed="max"/>
    <trip id="motorcycle8" depart="52.05" from="11675395#3" to="11671017#2" departLane="best" type="motorcycle_motorcycle"/>
    <trip id="motorcycle9" depart="58.56" from="-11675962" to="-11665826#3" departLane="best" type="motorcycle_motorcycle"/>
    <trip id="motorcycle10" depart="65.07" from="608280503#2" to="-11675435#0" departLane="best" type="motorcycle_motorcycle"/>
    <trip id="motorcycle11" depart="71.57" from="1364938278" to="11662601#2" departLane="best" type="motorcycle_motorcycle"/>
    <trip id="motorcycle12" depart="78.08" from="11675395#3" to="11673159#1" departLane="best" type="motorcycle_motorcycle"/>
    <trip id="motorcycle13" depart="84.59" from="11661643#0" to="614233154#1" departLane="best" type="motorcycle_motorcycle" departSpeed="max"/>
    <trip id="motorcycle14" depart="91.09" from="-1369337806#1" to="11658557#1" departLane="best" type="motorcycle_motorcycle" departSpeed="max"/>
    <trip id="motorcycle15" depart="97.60" from="1369337802" to="11661655#2" departLane="best" type="motorcycle_motorcycle"/>
    <trip id="motorcycle16" depart="104.10" from="11672994#0" to="-11657904#0" departLane="best" type="motorcycle_motorcycle"/>
    <trip id="motorcycle17" depart="110.61" from="-11672994#0" to="-11673824#1" departLane="best" type="motorcycle_motorcycle"/>
    <trip id="motorcycle18" depart="117.12" from="-11661655#0" to="-11672994#1" departLane="best" type="motorcycle_motorcycle"/>
    <trip id="motorcycle19" depart="123.62" from="-11662458#2" to="-11673815#0" departLane="best" type="motorcycle_motorcycle" departSpeed="max"/>
    <trip id="motorcycle20" depart="130.13" from="11665843#3" to="-11677169" departLane="best" type="motorcycle_motorcycle"/>
    <trip id="motorcycle21" depart="136.64" from="-1369337803" to="-11671654#1" departLane="best" type="motorcycle_motorcycle"/>
    <trip id="motorcycle22" depart="143.14" from="-11673791#5" to="420601177#1" departLane="best" type="motorcycle_motorcycle"/>
    <trip id="motorcycle23" depart="149.65" from="-11665843#9" to="11672994#2" departLane="best" type="motorcycle_motorcycle"/>
    <trip id="motorcycle24" depart="156.16" from="-11665843#3" to="-1364944594" departLane="best" type="motorcycle_motorcycle"/>
    <trip id="motorcycle25" depart="162.66" from="11661792#0" to="11670154" departLane="best" type="motorcycle_motorcycle"/>
    <trip id="motorcycle26" depart="169.17" from="11677999" to="11673824#0" departLane="best" type="motorcycle_motorcycle"/>
    <trip id="motorcycle27" depart="175.68" from="-11672994#1" to="-11656514#0" departLane="best" type="motorcycle_motorcycle"/>
    <trip id="motorcycle28" depart="182.18" from="-11675395#0" to="-11673791#3" departLane="best" type="motorcycle_motorcycle"/>
    <trip id="motorcycle29" depart="188.69" from="262807627#0" to="-11674210#0" departLane="best" type="motorcycle_motorcycle" departSpeed="max"/>
    <trip id="motorcycle30" depart="195.20" from="11670035#1" to="-1369337806#0" departLane="best" type="motorcycle_motorcycle"/>
    <trip id="motorcycle31" depart="201.70" from="420601177#0" to="-608280503#2" departLane="best" type="motorcycle_motorcycle"/>
    <trip id="motorcycle32" depart="208.21" from="-11673791#4" to="-11673159#6" departLane="best" type="motorcycle_motorcycle"/>
    <trip id="motorcycle33" depart="214.72" from="11662458#0" to="-11673791#1" departLane="best" type="motorcycle_motorcycle" departSpeed="max"/>
    <trip id="motorcycle34" depart="221.22" from="11664514#3" to="359415372#0" departLane="best" type="motorcycle_motorcycle"/>
    <trip id="motorcycle35" depart="227.73" from="-11659170" to="-1369337798" departLane="best" type="motorcycle_motorcycle"/>
    <trip id="motorcycle36" depart="234.24" from="658163848#1" to="1369337799" departLane="best" type="motorcycle_motorcycle"/>
    <trip id="motorcycle37" depart="240.74" from="-11651841#2" to="11672074#5" departLane="best" type="motorcycle_motorcycle" departSpeed="max"/>
    <trip id="motorcycle38" depart="247.25" from="11671654#1" to="11656715" departLane="best" type="motorcycle_motorcycle"/>
    <trip id="motorcycle39" depart="253.76" from="-11673791#5" to="11665278#1" departLane="best" type="motorcycle_motorcycle"/>
    <trip id="motorcycle40" depart="260.26" from="-11662601#3" to="-359415372#9" departLane="best" type="motorcycle_motorcycle"/>
    <trip id="motorcycle41" depart="266.77" from="420601169#0" to="1369337805" departLane="best" type="motorcycle_motorcycle"/>
    <trip id="motorcycle42" depart="273.27" from="11673824#1" to="11657110" departLane="best" type="motorcycle_motorcycle"/>
    <trip id="motorcycle43" depart="279.78" from="11673824#8" to="11656514#1" departLane="best" type="motorcycle_motorcycle"/>
    <trip id="motorcycle44" depart="286.29" from="-1053593991#0" to="-11674210#4" departLane="best" type="motorcycle_motorcycle"/>
    <trip id="motorcycle45" depart="292.79" from="-11674210#1" to="-11659232" departLane="best" type="motorcycle_motorcycle"/>
    <trip id="motorcycle46" depart="299.30" from="262807627#0" to="421154581" departLane="best" type="motorcycle_motorcycle" departSpeed="max"/>
    <trip id="motorcycle47" depart="305.81" from="-11659994#2" to="11673791#3" departLane="best" type="motorcycle_motorcycle"/>
    <trip id="motorcycle48" depart="312.31" from="-11673791#4" to="1369337806#0" departLane="best" type="motorcycle_motorcycle"/>
    <trip id="motorcycle49" depart="318.82" from="11661643#1" to="11673159#1" departLane="best" type="motorcycle_motorcycle"/>
    <trip id="motorcycle50" depart="325.33" from="-11671017#2" to="-11673901#1" departLane="best" type="motorcycle_motorcycle"/>
    <trip id="motorcycle51" depart="331.83" from="-608280503#4" to="11655766#5" departLane="best" type="motorcycle_motorcycle"/>
    <trip id="motorcycle52" depart="338.34" from="-11675781#5" to="11661792#1" departLane="best" type="motorcycle_motorcycle" departSpeed="max"/>
    <trip id="motorcycle53" depart="344.85" from="-11672994#1" to="-11672074#1" departLane="best" type="motorcycle_motorcycle"/>
    <trip id="motorcycle54" depart="351.35" from="-11660605" to="11664520#0" departLane="best" type="motorcycle_motorcycle"/>
    <trip id="motorcycle55" depart="357.86" from="1369337800" to="-11661643#2" departLane="best" type="motorcycle_motorcycle"/>
    <trip id="motorcycle56" depart="364.37" from="-11673159#3" to="11665843#9" departLane="best" type="motorcycle_motorcycle"/>
    <trip id="motorcycle57" depart="370.87" from="-11672074#0" to="-11664599#1" departLane="best" type="motorcycle_motorcycle"/>
    <trip id="motorcycle58" depart="377.38" from="568983121" to="11661643#2" departLane="best" type="motorcycle_motorcycle" departSpeed="max"/>
    <trip id="motorcycle59" depart="383.89" from="1053593991#0" to="11673824#3" departLane="best" type="motorcycle_motorcycle"/>
    <trip id="motorcycle60" depart="390.39" from="11675395#3" to="-11670154" departLane="best" type="motorcycle_motorcycle"/>
    <trip id="motorcycle61" depart="396.90" from="-11661832#1" to="-359415372#8" departLane="best" type="motorcycle_motorcycle"/>
    <trip id="motorcycle62" depart="403.41" from="11673310#2" to="11670035#0" departLane="best" type="motorcycle_motorcycle"/>
    <trip id="motorcycle63" depart="409.91" from="787115922#0" to="-11662601#1" departLane="best" type="motorcycle_motorcycle" departSpeed="max"/>
    <trip id="motorcycle64" depart="416.42" from="1369337802" to="-11673310#0" departLane="best" type="motorcycle_motorcycle"/>
    <trip id="motorcycle65" depart="422.93" from="-11670789#0" to="-568983121" departLane="best" type="motorcycle_motorcycle"/>
    <trip id="motorcycle66" depart="429.43" from="-614233155" to="1369337799" departLane="best" type="motorcycle_motorcycle"/>
    <trip id="motorcycle67" depart="435.94" from="11661655#2" to="-11659053#0" departLane="best" type="motorcycle_motorcycle"/>
    <trip id="motorcycle68" depart="442.44" from="1364938279#0" to="-11665843#5" departLane="best" type="motorcycle_motorcycle"/>
    <trip id="motorcycle69" depart="448.95" from="11655766#0" to="-11672071#1" departLane="best" type="motorcycle_motorcycle" departSpeed="max"/>
    <trip id="motorcycle70" depart="455.46" from="-359415372#3" to="-11659994#1" departLane="best" type="motorcycle_motorcycle"/>
    <trip id="motorcycle71" depart="461.96" from="-1369337806#1" to="658163849" departLane="best" type="motorcycle_motorcycle" departSpeed="max"/>
    <trip id="motorcycle72" depart="468.47" from="-11673791#4" to="11673824#3" departLane="best" type="motorcycle_motorcycle"/>
    <trip id="motorcycle73" depart="474.98" from="608280503#2" to="735481000#1" departLane="best" type="motorcycle_motorcycle"/>
    <trip id="motorcycle74" depart="481.48" from="11661792#0" to="11672074#4" departLane="best" type="motorcycle_motorcycle"/>
    <trip id="motorcycle75" depart="487.99" from="-11665826#3" to="-11673824#4" departLane="best" type="motorcycle_motorcycle"/>
    <trip id="motorcycle76" depart="494.50" from="658163848#0" to="11661785#0" departLane="best" type="motorcycle_motorcycle"/>
    <trip id="motorcycle77" depart="501.00" from="-11658557#1" to="11661792#0" departLane="best" type="motorcycle_motorcycle" departSpeed="max"/>
    <trip id="motorcycle78" depart="507.51" from="-11665843#1" to="60731689" departLane="best" type="motorcycle_motorcycle"/>
    <trip id="motorcycle79" depart="514.02" from="-11661655#0" to="-11670152#0" departLane="best" type="motorcycle_motorcycle"/>
    <trip id="motorcycle80" depart="520.52" from="11664514#8" to="11670035#0" departLane="best" type="motorcycle_motorcycle"/>
    <trip id="motorcycle81" depart="527.03" from="-11673159#2" to="-11664514#6" departLane="best" type="motorcycle_motorcycle"/>
    <trip id="motorcycle82" depart="533.54" from="359415372#10" to="-11673159#5" departLane="best" type="motorcycle_motorcycle"/>
    <trip id="motorcycle83" depart="540.04" from="11664514#8" to="11664514#5" departLane="best" type="motorcycle_motorcycle"/>
    <trip id="motorcycle84" depart="546.55" from="11659053#0" to="420601177#0" departLane="best" type="motorcycle_motorcycle"/>
    <trip id="motorcycle85" depart="553.06" from="-11671017#3" to="11672074#3" departLane="best" type="motorcycle_motorcycle"/>
    <trip id="motorcycle86" depart="559.56" from="-11673159#4" to="-1369337806#0" departLane="best" type="motorcycle_motorcycle"/>
    <trip id="motorcycle87" depart="566.07" from="11670789#3" to="-11673824#5" departLane="best" type="motorcycle_motorcycle"/>
    <trip id="motorcycle88" depart="572.58" from="-11661643#1" to="-608280503#2" departLane="best" type="motorcycle_motorcycle"/>
    <trip id="motorcycle89" depart="579.08" from="-11661643#1" to="-11672071#1" departLane="best" type="motorcycle_motorcycle"/>
    <trip id="motorcycle90" depart="585.59" from="-11673791#4" to="420601169#0" departLane="best" type="motorcycle_motorcycle"/>
    <trip id="motorcycle91" depart="592.10" from="-1369337803" to="-11665843#1" departLane="best" type="motorcycle_motorcycle"/>
    <trip id="motorcycle92" depart="598.60" from="11677123#0" to="11672071#0" departLane="best" type="motorcycle_motorcycle" departSpeed="max"/>
    <trip id="motorcycle93" depart="605.11" from="11664626#1" to="658163850#1" departLane="best" type="motorcycle_motorcycle"/>
    <trip id="motorcycle94" depart="611.61" from="11670035#0" to="-1118564707#0" departLane="best" type="motorcycle_motorcycle"/>
    <trip id="motorcycle95" depart="618.12" from="11675781#1" to="-11673824#5" departLane="best" type="motorcycle_motorcycle"/>
    <trip id="motorcycle96" depart="624.63" from="11670154" to="420606789" departLane="best" type="motorcycle_motorcycle"/>
    <trip id="motorcycle97" depart="631.13" from="-11664520#0" to="-11664514#4" departLane="best" type="motorcycle_motorcycle"/>
    <trip id="motorcycle98" depart="637.64" from="-11662601#1" to="11659053#0" departLane="best" type="motorcycle_motorcycle"/>
    <trip id="motorcycle99" depart="644.15" from="-11673791#7" to="11662601#2" departLane="best" type="motorcycle_motorcycle"/>
    <trip id="motorcycle100" depart="650.65" from="11673159#5" to="-11671017#1" departLane="best" type="motorcycle_motorcycle"/>
    <trip id="motorcycle101" depart="657.16" from="11665843#2" to="-11673791#1" departLane="best" type="motorcycle_motorcycle"/>
    <trip id="motorcycle102" depart="663.67" from="1364938278" to="-11662458#0" departLane="best" type="motorcycle_motorcycle"/>
    <trip id="motorcycle103" depart="670.17" from="-1053593991#2" to="11673815#0" departLane="best" type="motorcycle_motorcycle"/>
    <trip id="motorcycle104" depart="676.68" from="11665843#3" to="-11673791#0" departLane="best" type="motorcycle_motorcycle"/>
    <trip id="motorcycle105" depart="683.19" from="11673791#3" to="11658557#1" departLane="best" type="motorcycle_motorcycle"/>
    <trip id="motorcycle106" depart="689.69" from="-421154581" to="-1118564709#0" departLane="best" type="motorcycle_motorcycle"/>
    <trip id="motorcycle107" depart="696.20" from="-11661643#2" to="206312202#1" departLane="best" type="motorcycle_motorcycle"/>
    <trip id="motorcycle108" depart="702.71" from="359415372#8" to="11657904#1" departLane="best" type="motorcycle_motorcycle"/>
    <trip id="motorcycle109" depart="709.21" from="11677123#0" to="11661785#1" departLane="best" type="motorcycle_motorcycle" departSpeed="max"/>
    <trip id="motorcycle110" depart="715.72" from="-11665824#1" to="-11664520#0" departLane="best" type="motorcycle_motorcycle"/>
    <trip id="motorcycle111" depart="722.23" from="-11674210#1" to="359415372#0" departLane="best" type="motorcycle_motorcycle"/>
    <trip id="motorcycle112" depart="728.73" from="359415372#5" to="-11671654#1" departLane="best" type="motorcycle_motorcycle"/>
    <trip id="motorcycle113" depart="735.24" from="11673824#9" to="262807627#1" departLane="best" type="motorcycle_motorcycle"/>
    <trip id="motorcycle114" depart="741.75" from="-359415372#5" to="11664514#5" departLane="best" type="motorcycle_motorcycle"/>
    <trip id="motorcycle115" depart="748.25" from="-11665826#3" to="420601166#1" departLane="best" type="motorcycle_motorcycle"/>
    <trip id="motorcycle116" depart="754.76" from="1369337804" to="658163848#0" departLane="best" type="motorcycle_motorcycle"/>
    <trip id="motorcycle117" depart="761.27" from="11675435#0" to="1445437373" departLane="best" type="motorcycle_motorcycle" departSpeed="max"/>
    <trip id="motorcycle118" depart="767.77" from="-11655844#0" to="11673159#4" departLane="best" type="motorcycle_motorcycle"/>
    <trip id="motorcycle119" depart="774.28" from="11675435#0" to="-11673791#3" departLane="best" type="motorcycle_motorcycle" departSpeed="max"/>
    <trip id="motorcycle120" depart="780.78" from="11673903#0" to="-11664514#1" departLane="best" type="motorcycle_motorcycle"/>
    <trip id="motorcycle121" depart="787.29" from="-11672074#4" to="11675395#2" departLane="best" type="motorcycle_motorcycle"/>
    <trip id="motorcycle122" depart="793.80" from="-735481000#1" to="-11673824#8" departLane="best" type="motorcycle_motorcycle"/>
    <trip id="motorcycle123" depart="800.30" from="11674210#3" to="-11672074#5" departLane="best" type="motorcycle_motorcycle"/>
    <trip id="motorcycle124" depart="806.81" from="-11655766#5" to="-11670789#0" departLane="best" type="motorcycle_motorcycle"/>
    <trip id="motorcycle125" depart="813.32" from="-11675781#1" to="1369337802" departLane="best" type="motorcycle_motorcycle"/>
    <trip id="motorcycle126" depart="819.82" from="614233155" to="-11673815#1" departLane="best" type="motorcycle_motorcycle"/>
    <trip id="motorcycle127" depart="826.33" from="11665843#7" to="-1369337808" departLane="best" type="motorcycle_motorcycle"/>
    <trip id="motorcycle128" depart="832.84" from="735481000#0" to="11656715" departLane="best" type="motorcycle_motorcycle" departSpeed="max"/>
    <trip id="motorcycle129" depart="839.34" from="60730904#1" to="-11664514#4" departLane="best" type="motorcycle_motorcycle"/>
    <trip id="motorcycle130" depart="845.85" from="658163848#1" to="-11668875" departLane="best" type="motorcycle_motorcycle"/>
    <trip id="motorcycle131" depart="852.36" from="-11662601#2" to="-359415372#9" departLane="best" type="motorcycle_motorcycle"/>
    <trip id="motorcycle132" depart="858.86" from="11664599#1" to="11655766#2" departLane="best" type="motorcycle_motorcycle"/>
    <trip id="motorcycle133" depart="865.37" from="-1445437373" to="11661655#1" departLane="best" type="motorcycle_motorcycle"/>
    <trip id="motorcycle134" depart="871.88" from="11661643#0" to="11672074#4" departLane="best" type="motorcycle_motorcycle" departSpeed="max"/>
    <trip id="motorcycle135" depart="878.38" from="11673791#4" to="11666162#1" departLane="best" type="motorcycle_motorcycle"/>
    <trip id="motorcycle136" depart="884.89" from="-1369337799" to="-11661643#1" departLane="best" type="motorcycle_motorcycle"/>
    <trip id="motorcycle137" depart="891.40" from="11670154" to="-11675395#1" departLane="best" type="motorcycle_motorcycle"/>
    <trip id="motorcycle138" depart="897.90" from="11673159#6" to="-11673824#5" departLane="best" type="motorcycle_motorcycle"/>
    <trip id="motorcycle139" depart="904.41" from="-11674210#3" to="-262807627#1" departLane="best" type="motorcycle_motorcycle"/>
    <trip id="motorcycle140" depart="910.92" from="-359415372#3" to="-11673824#3" departLane="best" type="motorcycle_motorcycle"/>
    <trip id="motorcycle141" depart="917.42" from="-11664514#6" to="-359415372#2" departLane="best" type="motorcycle_motorcycle"/>
    <trip id="motorcycle142" depart="923.93" from="60731667" to="11670035#1" departLane="best" type="motorcycle_motorcycle"/>
    <trip id="motorcycle143" depart="930.44" from="359415372#7" to="11664514#3" departLane="best" type="motorcycle_motorcycle"/>
    <trip id="motorcycle144" depart="936.94" from="-11673901#0" to="11658557#0" departLane="best" type="motorcycle_motorcycle"/>
    <trip id="motorcycle145" depart="943.45" from="-1053593991#0" to="-11673824#0" departLane="best" type="motorcycle_motorcycle"/>
    <trip id="motorcycle146" depart="949.95" from="-60731687" to="11661785#0" departLane="best" type="motorcycle_motorcycle"/>
    <trip id="motorcycle147" depart="956.46" from="-614233154#1" to="-11672071#1" departLane="best" type="motorcycle_motorcycle" departSpeed="max"/>
    <trip id="motorcycle148" depart="962.97" from="1053593991#2" to="359415372#1" departLane="best" type="motorcycle_motorcycle"/>
    <trip id="motorcycle149" depart="969.47" from="11674210#4" to="-11665843#7" departLane="best" type="motorcycle_motorcycle"/>
    <trip id="motorcycle150" depart="975.98" from="11665843#10" to="-11675435#0" departLane="best" type="motorcycle_motorcycle"/>
    <trip id="motorcycle151" depart="982.49" from="11675781#2" to="11673475#1" departLane="best" type="motorcycle_motorcycle"/>
    <trip id="motorcycle152" depart="988.99" from="11670789#3" to="-11672074#4" departLane="best" type="motorcycle_motorcycle"/>
    <trip id="motorcycle153" depart="995.50" from="-11671017#1" to="-11655766#4" departLane="best" type="motorcycle_motorcycle"/>
    <trip id="motorcycle154" depart="1002.01" from="-11673310#1" to="-735481000#0" departLane="best" type="motorcycle_motorcycle"/>
    <trip id="motorcycle155" depart="1008.51" from="1364938280" to="-11661643#3" departLane="best" type="motorcycle_motorcycle"/>
    <trip id="motorcycle156" depart="1015.02" from="-359415372#9" to="11664520#0" departLane="best" type="motorcycle_motorcycle"/>
    <trip id="motorcycle157" depart="1021.53" from="-11670789#3" to="11671017#1" departLane="best" type="motorcycle_motorcycle"/>
    <trip id="motorcycle158" depart="1028.03" from="11655766#3" to="-11673159#4" departLane="best" type="motorcycle_motorcycle"/>
    <trip id="motorcycle159" depart="1034.54" from="11670035#1" to="-1053593991#3" departLane="best" type="motorcycle_motorcycle"/>
    <trip id="motorcycle160" depart="1041.05" from="11673815#0" to="11673815#0" departLane="best" type="motorcycle_motorcycle"/>
    <trip id="motorcycle161" depart="1047.55" from="-11668875" to="60731687" departLane="best" type="motorcycle_motorcycle"/>
    <trip id="motorcycle162" depart="1054.06" from="11657904#1" to="-11659053#0" departLane="best" type="motorcycle_motorcycle"/>
    <trip id="motorcycle163" depart="1060.57" from="-11673310#3" to="11678000" departLane="best" type="motorcycle_motorcycle"/>
    <trip id="motorcycle164" depart="1067.07" from="11670789#1" to="658163850#1" departLane="best" type="motorcycle_motorcycle"/>
    <trip id="motorcycle165" depart="1073.58" from="11664514#9" to="60730904#1" departLane="best" type="motorcycle_motorcycle"/>
    <trip id="motorcycle166" depart="1080.09" from="359415372#10" to="11664514#10" departLane="best" type="motorcycle_motorcycle"/>
    <trip id="motorcycle167" depart="1086.59" from="11673159#5" to="1118564709#1" departLane="best" type="motorcycle_motorcycle"/>
    <trip id="motorcycle168" depart="1093.10" from="359415372#4" to="11673310#2" departLane="best" type="motorcycle_motorcycle"/>
    <trip id="motorcycle169" depart="1099.61" from="-11673310#2" to="11664626#2" departLane="best" type="motorcycle_motorcycle"/>
    <trip id="motorcycle170" depart="1106.11" from="11673824#2" to="11655844#1" departLane="best" type="motorcycle_motorcycle"/>
    <trip id="motorcycle171" depart="1112.62" from="11665826#2" to="-11673791#7" departLane="best" type="motorcycle_motorcycle"/>
    <trip id="motorcycle172" depart="1119.13" from="-11661643#3" to="-11673816#1" departLane="best" type="motorcycle_motorcycle"/>
    <trip id="motorcycle173" depart="1125.63" from="-11672994#2" to="11671017#0" departLane="best" type="motorcycle_motorcycle"/>
    <trip id="motorcycle174" depart="1132.14" from="11672994#1" to="-11661643#0" departLane="best" type="motorcycle_motorcycle"/>
    <trip id="motorcycle175" depart="1138.64" from="-359415372#6" to="11657372" departLane="best" type="motorcycle_motorcycle"/>
    <trip id="motorcycle176" depart="1145.15" from="-420601165#0" to="-11671017#3" departLane="best" type="motorcycle_motorcycle"/>
    <trip id="motorcycle177" depart="1151.66" from="-420606789" to="359415372#2" departLane="best" type="motorcycle_motorcycle"/>
    <trip id="motorcycle178" depart="1158.16" from="1369337799" to="11673791#6" departLane="best" type="motorcycle_motorcycle"/>
    <trip id="motorcycle179" depart="1164.67" from="-11678000" to="11673475#1" departLane="best" type="motorcycle_motorcycle"/>
    <trip id="motorcycle180" depart="1171.18" from="1364944594" to="60731667" departLane="best" type="motorcycle_motorcycle"/>
    <trip id="motorcycle181" depart="1177.68" from="11661655#0" to="11662601#2" departLane="best" type="motorcycle_motorcycle"/>
    <trip id="motorcycle182" depart="1184.19" from="-11672074#4" to="-11672074#1" departLane="best" type="motorcycle_motorcycle"/>
    <trip id="motorcycle183" depart="1190.70" from="-608280503#3" to="-11655844#0" departLane="best" type="motorcycle_motorcycle"/>
    <trip id="motorcycle184" depart="1197.20" from="-359415372#4" to="-11665843#5" departLane="best" type="motorcycle_motorcycle"/>
    <trip id="motorcycle185" depart="1203.71" from="1036472422" to="-11664520#0" departLane="best" type="motorcycle_motorcycle"/>
    <trip id="motorcycle186" depart="1210.22" from="11665826#0" to="-11655766#5" departLane="best" type="motorcycle_motorcycle"/>
    <trip id="motorcycle187" depart="1216.72" from="-359415372#0" to="11659994#2" departLane="best" type="motorcycle_motorcycle"/>
    <trip id="motorcycle188" depart="1223.23" from="-11655844#1" to="11665824#0" departLane="best" type="motorcycle_motorcycle" departSpeed="max"/>
    <trip id="motorcycle189" depart="1229.74" from="-11664520#0" to="-608280503#4" departLane="best" type="motorcycle_motorcycle"/>
    <trip id="motorcycle190" depart="1236.24" from="-11657904#1" to="-1364944594" departLane="best" type="motorcycle_motorcycle"/>
    <trip id="motorcycle191" depart="1242.75" from="-11672073" to="-11675395#0" departLane="best" type="motorcycle_motorcycle"/>
    <trip id="motorcycle192" depart="1249.26" from="11673824#0" to="-1364944594" departLane="best" type="motorcycle_motorcycle"/>
    <trip id="motorcycle193" depart="1255.76" from="-11673475#0" to="-11661785#0" departLane="best" type="motorcycle_motorcycle"/>
    <trip id="motorcycle194" depart="1262.27" from="-11655766#3" to="11657110" departLane="best" type="motorcycle_motorcycle"/>
    <trip id="motorcycle195" depart="1268.78" from="11666162#1" to="11673824#11" departLane="best" type="motorcycle_motorcycle"/>
    <trip id="motorcycle196" depart="1275.28" from="11668875" to="11673791#0" departLane="best" type="motorcycle_motorcycle"/>
    <trip id="motorcycle197" depart="1281.79" from="60731689" to="-11670789#3" departLane="best" type="motorcycle_motorcycle"/>
    <trip id="motorcycle198" depart="1288.30" from="-11655766#4" to="-11665826#2" departLane="best" type="motorcycle_motorcycle"/>
    <trip id="motorcycle199" depart="1294.80" from="11672074#5" to="11673791#6" departLane="best" type="motorcycle_motorcycle"/>
    <trip id="motorcycle200" depart="1301.31" from="-11665843#6" to="11664514#0" departLane="best" type="motorcycle_motorcycle"/>
    <trip id="motorcycle201" depart="1307.81" from="11673791#7" to="-11664514#4" departLane="best" type="motorcycle_motorcycle"/>
    <trip id="motorcycle202" depart="1314.32" from="-11662601#1" to="-11655766#4" departLane="best" type="motorcycle_motorcycle"/>
    <trip id="motorcycle203" depart="1320.83" from="-11674210#4" to="11670035#1" departLane="best" type="motorcycle_motorcycle"/>
    <trip id="motorcycle204" depart="1327.33" from="11673159#3" to="-11661655#0" departLane="best" type="motorcycle_motorcycle"/>
    <trip id="motorcycle205" depart="1333.84" from="-11662458#2" to="11673815#1" departLane="best" type="motorcycle_motorcycle" departSpeed="max"/>
    <trip id="motorcycle206" depart="1340.35" from="1364938280" to="11662601#0" departLane="best" type="motorcycle_motorcycle"/>
    <trip id="motorcycle207" depart="1346.85" from="-11664514#3" to="658163848#2" departLane="best" type="motorcycle_motorcycle"/>
    <trip id="motorcycle208" depart="1353.36" from="11673901#0" to="-11675781#3" departLane="best" type="motorcycle_motorcycle"/>
    <trip id="motorcycle209" depart="1359.87" from="11656514#1" to="-11675781#0" departLane="best" type="motorcycle_motorcycle"/>
    <trip id="motorcycle210" depart="1366.37" from="-11662601#0" to="60731689" departLane="best" type="motorcycle_motorcycle"/>
    <trip id="motorcycle211" depart="1372.88" from="11665843#3" to="11675781#3" departLane="best" type="motorcycle_motorcycle"/>
    <trip id="motorcycle212" depart="1379.39" from="11672994#1" to="-420601165#0" departLane="best" type="motorcycle_motorcycle"/>
    <trip id="motorcycle213" depart="1385.89" from="-11673791#6" to="11674210#4" departLane="best" type="motorcycle_motorcycle"/>
    <trip id="motorcycle214" depart="1392.40" from="11661643#0" to="-787115922#0" departLane="best" type="motorcycle_motorcycle" departSpeed="max"/>
    <trip id="motorcycle215" depart="1398.91" from="-608280503#3" to="11673159#1" departLane="best" type="motorcycle_motorcycle"/>
    <trip id="motorcycle216" depart="1405.41" from="-11673791#5" to="1364938279#0" departLane="best" type="motorcycle_motorcycle"/>
    <trip id="motorcycle217" depart="1411.92" from="11676498#1" to="-11661832#0" departLane="best" type="motorcycle_motorcycle"/>