<?xml version="1.0" encoding="UTF-8"?>

<!-- generated on 2026-01-21 20:24:04.037081 by Eclipse SUMO osmWebWizard.py v1.25.0
<configuration>
    <net-file value="/home/hoeman/Sumo/2026-01-21-20-23-38/osm.net.xml.gz"/>
    <output-trip-file value="/home/hoeman/Sumo/2026-01-21-20-23-38/osm.truck.trips.xml"/>
    <route-file value="/home/hoeman/Sumo/2026-01-21-20-23-38/osm.truck.rou.xml"/>
    <prefix value="truck"/>
    <trip-attributes value="departLane=&quot;best&quot;"/>
    <fringe-start-attributes value="departSpeed=&quot;max&quot;"/>
    <vehicle-class value="truck"/>
    <fringe-factor value="20"/>
    <edge-permission value="truck"/>
    <via-edge-types value="highway.motorway,highway.motorway_link,highway.trunk_link,highway.primary_link,highway.secondary_link,highway.tertiary_link"/>
    <seed value="44"/>
    <min-distance value="600.0"/>
    <min-distance.fringe value="10.0"/>
    <remove-loops value="True"/>
    <insertion-density value="15.0"/>
</configuration>
-->

<routes xmlns:xsi="http://www.w3.org/2001/XMLSchema-instance" xsi:noNamespaceSchemaLocation="http://sumo.dlr.de/xsd/routes_file.xsd">
    <vType id="truck_truck" vClass="truck"/>
    <trip id="truck0" depart="0.00" from="-687422460" to="11655844#1" departLane="best" type="truck_truck"/>
    <trip id="truck1" depart="1.77" from="42681424" to="-11664626#2" departLane="best" type="truck_truck" departSpeed="max"/>
    <trip id="truck2" depart="3.54" from="-11673475#1" to="-11655766#0" departLane="best" type="truck_truck" departSpeed="max"/>
    <trip id="truck3" depart="5.31" from="-11659994#1" to="-11651841#0" departLane="best" type="truck_truck"/>
    <trip id="truck4" depart="7.09" from="-11662458#2" to="1053593991#2" departLane="best" type="truck_truck" departSpeed="max"/>
    <trip id="truck5" depart="8.86" from="851965846" to="11665826#0" departLane="best" type="truck_truck" departSpeed="max"/>
    <trip id="truck6" depart="10.63" from="-658163848#2" to="-262807627#0" departLane="best" type="truck_truck" departSpeed="max"/>
    <trip id="truck7" depart="12.40" from="11666162#0" to="-11662458#0" departLane="best" type="truck_truck" departSpeed="max"/>
    <trip id="truck8" depart="14.17" from="-11656514#2" to="-11661643#0" departLane="best" type="truck_truck" departSpeed="max"/>
    <trip id="truck9" depart="15.94" from="787115922#0" to="-11661785#0" departLane="best" type="truck_truck" departSpeed="max"/>
    <trip id="truck10" depart="17.71" from="-11655844#1" to="-11677169" departLane="best" type="truck_truck" departSpeed="max"/>
    <trip id="truck11" depart="19.48" from="11657904#0" to="38913007#1" departLane="best" type="truck_truck" departSpeed="max"/>
    <trip id="truck12" depart="21.26" from="-11673816#1" to="-11656514#0" departLane="best" type="truck_truck"/>
    <trip id="truck13" depart="23.03" from="11674210#0" to="11673475#1" departLane="best" type="truck_truck" departSpeed="max"/>
    <trip id="truck14" depart="24.80" from="11673310#0" to="-11675435#0" departLane="best" type="truck_truck" departSpeed="max"/>
    <trip id="truck15" depart="26.57" from="262807627#0" to="11659994#2" departLane="best" type="truck_truck" departSpeed="max"/>
    <trip id="truck16" depart="28.34" from="11664626#0" to="11655844#1" departLane="best" type="truck_truck" departSpeed="max"/>
    <trip id="truck17" depart="30.11" from="-11673475#1" to="-608280503#0" departLane="best" type="truck_truck" departSpeed="max"/>
    <trip id="truck18" depart="31.88" from="-359415372#6" to="11677123#2" departLane="best" type="truck_truck"/>
    <trip id="truck19" depart="33.66" from="359415372#2" to="-11656514#0" departLane="best" type="truck_truck"/>
    <trip id="truck20" depart="35.43" from="-11662458#2" to="-11672074#0" departLane="best" type="truck_truck" departSpeed="max"/>
    <trip id="truck21" depart="37.20" from="11673159#2" to="11655844#1" departLane="best" type="truck_truck"/>
    <trip id="truck22" depart="38.97" from="851965846" to="-11677123#0" departLane="best" type="truck_truck" departSpeed="max"/>
    <trip id="truck23" depart="40.74" from="-359415372#0" to="1369337806#1" departLane="best" type="truck_truck"/>
    <trip id="truck24" depart="42.51" from="11666162#0" to="-11656514#1" departLane="best" type="truck_truck" departSpeed="max"/>
    <trip id="truck25" depart="44.28" from="11670035#0" to="-11662458#0" departLane="best" type="truck_truck"/>
    <trip id="truck26" depart="46.05" from="-11665824#1" to="11661792#1" departLane="best" type="truck_truck"/>
    <trip id="truck27" depart="47.83" from="262807627#2" to="11658557#1" departLane="best" type="truck_truck"/>
    <trip id="truck28" depart="49.60" from="-11675781#5" to="11664520#1" departLane="best" type="truck_truck" departSpeed="max"/>
    <trip id="truck29" depart="51.37" from="11670152#2" to="-11666162#0" departLane="best" type="truck_truck"/>
    <trip id="truck30" depart="53.14" from="359415372#3" to="1369337805" departLane="best" type="truck_truck"/>
    <trip id="truck31" depart="54.91" from="-11675781#5" to="658163848#0" departLane="best" type="truck_truck" departSpeed="max"/>
    <trip id="truck32" depart="56.68" from="-11675009" to="-11657904#0" departLane="best" type="truck_truck"/>
    <trip id="truck33" depart="58.45" from="11661643#0" to="26604431" departLane="best" type="truck_truck" departSpeed="max"/>
    <trip id="truck34" depart="60.23" from="11665843#2" to="11655844#1" departLane="best" type="truck_truck"/>
    <trip id="truck35" depart="62.00" from="11657904#0" to="-11673824#2" departLane="best" type="truck_truck" departSpeed="max"/>
    <trip id="truck36" depart="63.77" from="-11677123#2" to="-1445437373" departLane="best" type="truck_truck" departSpeed="max"/>
    <trip id="truck37" depart="65.54" from="11664514#1" to="420607256" departLane="best" type="truck_truck"/>
    <trip id="truck38" depart="67.31" from="-11656514#2" to="-568983121" departLane="best" type="truck_truck" departSpeed="max"/>
    <trip id="truck39" depart="69.08" from="11673310#0" to="38913001#1" departLane="best" type="truck_truck" departSpeed="max"/>
    <trip id="truck40" depart="70.85" from="-11657372" to="38913001#1" departLane="best" type="truck_truck" departSpeed="max"/>
    <trip id="truck41" depart="72.62" from="11677123#0" to="-11673816#0" departLane="best" type="truck_truck" departSpeed="max"/>
    <trip id="truck42" depart="74.40" from="11664599#0" to="-11657904#0" departLane="best" type="truck_truck" departSpeed="max"/>
    <trip id="truck43" depart="76.17" from="-11675781#5" to="-262807627#0" departLane="best" type="truck_truck" departSpeed="max"/>
    <trip id="truck44" depart="77.94" from="-11661792#1" to="420607256" departLane="best" type="truck_truck" departSpeed="max"/>
    <trip id="truck45" depart="79.71" from="11665826#3" to="11651841#2" departLane="best" type="truck_truck"/>
    <trip id="truck46" depart="81.48" from="-1369337806#1" to="-11675435#0" departLane="best" type="truck_truck" departSpeed="max"/>
    <trip id="truck47" depart="83.25" from="11659232" to="38913001#1" departLane="best" type="truck_truck"/>
    <trip id="truck48" depart="85.02" from="-11657372" to="38913001#1" departLane="best" type="truck_truck" departSpeed="max"/>
    <trip id="truck49" depart="86.80" from="735481000#0" to="11664514#5" departLane="best" type="truck_truck" departSpeed="max"/>
    <trip id="truck50" depart="88.57" from="787115922#0" to="11673475#1" departLane="best" type="truck_truck" departSpeed="max"/>
    <trip id="truck51" depart="90.34" from="-11673310#2" to="11665278#1" departLane="best" type="truck_truck"/>
    <trip id="truck52" depart="92.11" from="11675435#0" to="-11651841#0" departLane="best" type="truck_truck" departSpeed="max"/>
    <trip id="truck53" depart="93.88" from="-1364944594" to="11655766#3" departLane="best" type="truck_truck"/>
    <trip id="truck54" depart="95.65" from="-11665843#6" to="-11651841#0" departLane="best" type="truck_truck"/>
    <trip id="truck55" depart="97.42" from="-11661643#3" to="-1364938278" departLane="best" type="truck_truck"/>
    <trip id="truck56" depart="99.19" from="11661643#0" to="11661792#0" departLane="best" type="truck_truck" departSpeed="max"/>
    <trip id="truck57" depart="100.97" from="608280503#0" to="11661643#1" departLane="best" type="truck_truck" departSpeed="max"/>
    <trip id="truck58" depart="102.74" from="11673816#0" to="11664599#1" departLane="best" type="truck_truck" departSpeed="max"/>
    <trip id="truck59" depart="104.51" from="-1369337806#1" to="11657372" departLane="best" type="truck_truck" departSpeed="max"/>
    <trip id="truck60" depart="106.28" from="262807627#0" to="-11651841#0" departLane="best" type="truck_truck" departSpeed="max"/>
    <trip id="truck61" depart="108.05" from="-11651841#2" to="-11657904#0" departLane="best" type="truck_truck" departSpeed="max"/>
    <trip id="truck62" depart="109.82" from="11664599#0" to="26604431" departLane="best" type="truck_truck" departSpeed="max"/>
    <trip id="truck63" depart="111.59" from="11651841#0" to="420607256" departLane="best" type="truck_truck" departSpeed="max"/>
    <trip id="truck64" depart="113.37" from="568983121" to="1369337799" departLane="best" type="truck_truck" departSpeed="max"/>
    <trip id="truck65" depart="115.14" from="-11673824#0" to="-11673816#0" departLane="best" type="truck_truck"/>
    <trip id="truck66" depart="116.91" from="-11662458#2" to="-11673815#1" departLane="best" type="truck_truck" departSpeed="max"/>
    <trip id="truck67" depart="118.68" from="-682353414" to="11675781#5" departLane="best" type="truck_truck" departSpeed="max"/>
    <trip id="truck68" depart="120.45" from="568983121" to="-608280503#4" departLane="best" type="truck_truck" departSpeed="max"/>
    <trip id="truck69" depart="122.22" from="11677169" to="11664599#1" departLane="best" type="truck_truck" departSpeed="max"/>
    <trip id="truck70" depart="123.99" from="42681430" to="-787115922#0" departLane="best" type="truck_truck" departSpeed="max"/>
    <trip id="truck71" depart="125.76" from="-658163848#2" to="-608280503#0" departLane="best" type="truck_truck" departSpeed="max"/>
    <trip id="truck72" depart="127.54" from="11677169" to="-11673816#0" departLane="best" type="truck_truck" departSpeed="max"/>
    <trip id="truck73" depart="129.31" from="-11670152#0" to="1369337806#1" departLane="best" type="truck_truck"/>
    <trip id="truck74" depart="131.08" from="11657904#0" to="11661792#1" departLane="best" type="truck_truck" departSpeed="max"/>
    <trip id="truck75" depart="132.85" from="-11664520#0" to="-11655844#0" departLane="best" type="truck_truck"/>
    <trip id="truck76" depart="134.62" from="-11673475#1" to="-359415372#7" departLane="best" type="truck_truck" departSpeed="max"/>
    <trip id="truck77" depart="136.39" from="-11655844#1" to="-11673816#0" departLane="best" type="truck_truck" departSpeed="max"/>
    <trip id="truck78" depart="138.16" from="735481000#0" to="-568983121" departLane="best" type="truck_truck" departSpeed="max"/>
    <trip id="truck79" depart="139.94" from="-11651841#2" to="11676498#1" departLane="best" type="truck_truck" departSpeed="max"/>
    <trip id="truck80" depart="141.71" from="11672074#0" to="11662458#2" departLane="best" type="truck_truck"/>
    <trip id="truck81" depart="143.48" from="-1369337806#1" to="11670789#0" departLane="best" type="truck_truck" departSpeed="max"/>
    <trip id="truck82" depart="145.25" from="42681430" to="-11676498#0" departLane="best" type="truck_truck" departSpeed="max"/>
    <trip id="truck83" depart="147.02" from="11659232" to="-11651841#0" departLane="best" type="truck_truck"/>
    <trip id="truck84" depart="148.79" from="11664626#2" to="-11673903#0" departLane="best" type="truck_truck"/>
    <trip id="truck85" depart="150.56" from="11673310#0" to="11673791#6" departLane="best" type="truck_truck" departSpeed="max"/>
    <trip id="truck86" depart="152.33" from="-359415372#1" to="11662458#2" departLane="best" type="truck_truck"/>
    <trip id="truck87" depart="154.11" from="735481000#0" to="-11664626#0" departLane="best" type="truck_truck" departSpeed="max"/>
    <trip id="truck88" depart="155.88" from="11677169" to="-735481000#0" departLane="best" type="truck_truck" departSpeed="max"/>
    <trip id="truck89" depart="157.65" from="735481000#0" to="-11657904#0" departLane="best" type="truck_truck" departSpeed="max"/>
    <trip id="truck90" depart="159.42" from="-11673903#0" to="359415372#3" departLane="best" type="truck_truck"/>
    <trip id="truck91" depart="161.19" from="787115922#0" to="-11656514#0" departLane="best" type="truck_truck" departSpeed="max"/>
    <trip id="truck92" depart="162.96" from="-11651841#2" to="11673824#6" departLane="best" type="truck_truck" departSpeed="max"/>
    <trip id="truck93" depart="164.73" from="11664599#0" to="1369337806#1" departLane="best" type="truck_truck" departSpeed="max"/>
    <trip id="truck94" depart="166.51" from="11659170" to="420607256" departLane="best" type="truck_truck"/>
    <trip id="truck95" depart="168.28" from="-1369337806#1" to="-11672994#0" departLane="best" type="truck_truck" departSpeed="max"/>
    <trip id="truck96" depart="170.05" from="42681430" to="11651841#2" departLane="best" type="truck_truck" departSpeed="max"/>
    <trip id="truck97" depart="171.82" from="-11655844#1" to="-11651841#0" departLane="best" type="truck_truck" departSpeed="max"/>
    <trip id="truck98" depart="173.59" from="-11651841#2" to="11673159#2" departLane="best" type="truck_truck" departSpeed="max"/>
    <trip id="truck99" depart="175.36" from="11672074#1" to="-11662458#0" departLane="best" type="truck_truck"/>
    <trip id="truck100" depart="177.13" from="11677169" to="11675009" departLane="best" type="truck_truck" departSpeed="max"/>
    <trip id="truck101" depart="178.90" from="11671017#0" to="11656514#2" departLane="best" type="truck_truck"/>
    <trip id="truck102" depart="180.68" from="11651841#0" to="11665824#0" departLane="best" type="truck_truck" departSpeed="max"/>
    <trip id="truck103" depart="182.45" from="-658163848#2" to="38913007#1" departLane="best" type="truck_truck" departSpeed="max"/>
    <trip id="truck104" depart="184.22" from="608280503#2" to="682353414" departLane="best" type="truck_truck"/>
    <trip id="truck105" depart="185.99" from="11661832#1" to="38913007#1" departLane="best" type="truck_truck"/>
    <trip id="truck106" depart="187.76" from="-11672074#1" to="-11673475#0" departLane="best" type="truck_truck"/>
    <trip id="truck107" depart="189.53" from="-11675781#5" to="-11673159#2" departLane="best" type="truck_truck" departSpeed="max"/>
    <trip id="truck108" depart="191.30" from="1369337803" to="11655766#3" departLane="best" type="truck_truck"/>
    <trip id="truck109" depart="193.08" from="-11657372" to="1036472422" departLane="best" type="truck_truck" departSpeed="max"/>
    <trip id="truck110" depart="194.85" from="11673824#0" to="-11655766#0" departLane="best" type="truck_truck"/>
    <trip id="truck111" depart="196.62" from="-11670789#0" to="-11651841#0" departLane="best" type="truck_truck"/>
    <trip id="truck112" depart="198.39" from="11673824#0" to="-1369337806#0" departLane="best" type="truck_truck"/>
    <trip id="truck113" depart="200.16" from="-11670035#1" to="11656313" departLane="best" type="truck_truck"/>
    <trip id="truck114" depart="201.93" from="11651841#0" to="-262807627#2" departLane="best" type="truck_truck" departSpeed="max"/>
    <trip id="truck115" depart="203.70" from="-1369337806#1" to="-11655766#3" departLane="best" type="truck_truck" departSpeed="max"/>
    <trip id="truck116" depart="205.47" from="-1369337806#1" to="11661643#3" departLane="best" type="truck_truck" departSpeed="max"/>
    <trip id="truck117" depart="207.25" from="-11662458#2" to="-11655844#0" departLane="best" type="truck_truck" departSpeed="max"/>
    <trip id="truck118" depart="209.02" from="11676498#0" to="11671017#0" departLane="best" type="truck_truck" departSpeed="max"/>
    <trip id="truck119" depart="210.79" from="-11677123#2" to="11673159#5" departLane="best" type="truck_truck" departSpeed="max"/>
    <trip id="truck120" depart="212.56" from="-11675962" to="11657372" departLane="best" type="truck_truck"/>
    <trip id="truck121" depart="214.33" from="60731687" to="-608280503#0" departLane="best" type="truck_truck"/>
    <trip id="truck122" depart="216.10" from="11666162#0" to="682353414" departLane="best" type="truck_truck" departSpeed="max"/>
    <trip id="truck123" depart="217.87" from="11657904#0" to="-11673310#0" departLane="best" type="truck_truck" departSpeed="max"/>
    <trip id="truck124" depart="219.65" from="787115922#0" to="11662458#2" departLane="best" type="truck_truck" departSpeed="max"/>
    <trip id="truck125" depart="221.42" from="-1369337806#1" to="-11673816#0" departLane="best" type="truck_truck" departSpeed="max"/>
    <trip id="truck126" depart="223.19" from="851965843" to="11656313" departLane="best" type="truck_truck" departSpeed="max"/>
    <trip id="truck127" depart="224.96" from="42681430" to="-735481000#0" departLane="best" type="truck_truck" departSpeed="max"/>
    <trip id="truck128" depart="226.73" from="608280503#0" to="11656313" departLane="best" type="truck_truck" departSpeed="max"/>
    <trip id="truck129" depart="228.50" from="-11661832#1" to="38913001#1" departLane="best" type="truck_truck"/>
    <trip id="truck130" depart="230.27" from="-11677123#2" to="38913007#1" departLane="best" type="truck_truck" departSpeed="max"/>
    <trip id="truck131" depart="232.04" from="11661655#1" to="-11677123#1" departLane="best" type="truck_truck"/>
    <trip id="truck132" depart="233.82" from="-11657372" to="38913001#1" departLane="best" type="truck_truck" departSpeed="max"/>
    <trip id="truck133" depart="235.59" from="-359415372#9" to="-11655766#0" departLane="best" type="truck_truck"/>
    <trip id="truck134" depart="237.36" from="-682353414" to="11661655#1" departLane="best" type="truck_truck" departSpeed="max"/>
    <trip id="truck135" depart="239.13" from="11671654#1" to="38913007#1" departLane="best" type="truck_truck"/>
    <trip id="truck136" depart="240.90" from="-420606789" to="60731677#0" departLane="best" type="truck_truck"/>
    <trip id="truck137" depart="242.67" from="-11651841#2" to="-11664599#1" departLane="best" type="truck_truck" departSpeed="max"/>
    <trip id="truck138" depart="244.44" from="11657904#0" to="11661792#1" departLane="best" type="truck_truck" departSpeed="max"/>
    <trip id="truck139" depart="246.21" from="1118564709#1" to="11675781#4" departLane="best" type="truck_truck"/>
    <trip id="truck140" depart="247.99" from="11664514#0" to="-1053593991#0" departLane="best" type="truck_truck"/>
    <trip id="truck141" depart="249.76" from="-658163848#2" to="11661792#1" departLane="best" type="truck_truck" departSpeed="max"/>
    <trip id="truck142" depart="251.53" from="11672994#0" to="-608280503#0" departLane="best" type="truck_truck"/>
    <trip id="truck143" depart="253.30" from="851965846" to="60730904#0" departLane="best" type="truck_truck" departSpeed="max"/>
    <trip id="truck144" depart="255.07" from="-11677999" to="-11655766#0" departLane="best" type="truck_truck"/>
    <trip id="truck145" depart="256.84" from="11651841#0" to="-420601166#1" departLane="best" type="truck_truck" departSpeed="max"/>
    <trip id="truck146" depart="258.61" from="-11657372" to="-11674210#0" departLane="best" type="truck_truck" departSpeed="max"/>
    <trip id="truck147" depart="260.39" from="-658163848#2" to="11674210#3" departLane="best" type="truck_truck" departSpeed="max"/>
    <trip id="truck148" depart="262.16" from="11673901#1" to="-11677123#0" departLane="best" type="truck_truck"/>
    <trip id="truck149" depart="263.93" from="262807627#0" to="-11655766#0" departLane="best" type="truck_truck" departSpeed="max"/>
    <trip id="truck150" depart="265.70" from="42681424" to="-11673824#3" departLane="best" type="truck_truck" departSpeed="max"/>
    <trip id="truck151" depart="267.47" from="11673816#0" to="608280503#4" departLane="best" type="truck_truck" departSpeed="max"/>
    <trip id="truck152" depart="269.24" from="-11658557#1" to="26966898" departLane="best" type="truck_truck" departSpeed="max"/>
    <trip id="truck153" depart="271.01" from="-11664626#1" to="-608280503#0" departLane="best" type="truck_truck"/>
    <trip id="truck154" depart="272.78" from="-11660605" to="38913007#1" departLane="best" type="truck_truck"/>
    <trip id="truck155" depart="274.56" from="851965843" to="-11664599#0" departLane="best" type="truck_truck" departSpeed="max"/>
    <trip id="truck156" depart="276.33" from="-11657110" to="11665826#1" departLane="best" type="truck_truck"/>
    <trip id="truck157" depart="278.10" from="-11673824#6" to="-11651841#0" departLane="best" type="truck_truck"/>
    <trip id="truck158" depart="279.87" from="-359415372#3" to="-11656514#0" departLane="best" type="truck_truck"/>
    <trip id="truck159" depart="281.64" from="-11655844#1" to="11673475#1" departLane="best" type="truck_truck" departSpeed="max"/>
    <trip id="truck160" depart="283.41" from="-11673475#1" to="26966898" departLane="best" type="truck_truck" departSpeed="max"/>
    <trip id="truck161" depart="285.18" from="-11655844#1" to="-11662458#0" departLane="best" type="truck_truck" departSpeed="max"/>
    <trip id="truck162" depart="286.96" from="-11672074#0" to="-11677123#1" departLane="best" type="truck_truck"/>
    <trip id="truck163" depart="288.73" from="42681424" to="11677123#2" departLane="best" type="truck_truck" departSpeed="max"/>
    <trip id="truck164" depart="290.50" from="735481000#0" to="-11659053#1" departLane="best" type="truck_truck" departSpeed="max"/>
    <trip id="truck165" depart="292.27" from="-11655844#1" to="-1369337808" departLane="best" type="truck_truck" departSpeed="max"/>
    <trip id="truck166" depart="294.04" from="1053593991#2" to="11664514#4" departLane="best" type="truck_truck"/>
    <trip id="truck167" depart="295.81" from="11655766#0" to="1369337806#1" departLane="best" type="truck_truck" departSpeed="max"/>
    <trip id="truck168" depart="297.58" from="-11662458#2" to="11656715" departLane="best" type="truck_truck" departSpeed="max"/>
    <trip id="truck169" depart="299.35" from="-1369337799" to="-11675962" departLane="best" type="truck_truck"/>
    <trip id="truck170" depart="301.13" from="11677169" to="682353414" departLane="best" type="truck_truck" departSpeed="max"/>
    <trip id="truck171" depart="302.90" from="-658163848#2" to="11673475#1" departLane="best" type="truck_truck" departSpeed="max"/>
    <trip id="truck172" depart="304.67" from="11673475#0" to="-11672994#0" departLane="best" type="truck_truck"/>
    <trip id="truck173" depart="306.44" from="11675435#0" to="11673475#1" departLane="best" type="truck_truck" departSpeed="max"/>
    <trip id="truck174" depart="308.21" from="-11672074#1" to="-11657904#0" departLane="best" type="truck_truck"/>
    <trip id="truck175" depart="309.98" from="-11661655#2" to="11665826#2" departLane="best" type="truck_truck"/>
    <trip id="truck176" depart="311.75" from="-359415372#4" to="11661792#1" departLane="best" type="truck_truck"/>
    <trip id="truck177" depart="313.53" from="-11675781#5" to="-11673159#4" departLane="best" type="truck_truck" departSpeed="max"/>
    <trip id="truck178" depart="315.30" from="11670035#0" to="-11657904#0" departLane="best" type="truck_truck"/>
    <trip id="truck179" depart="317.07" from="-11659053#0" to="1369337806#1" departLane="best" type="truck_truck"/>
    <trip id="truck180" depart="318.84" from="-11674210#3" to="38913007#1" departLane="best" type="truck_truck"/>
    <trip id="truck181" depart="320.61" from="851965843" to="11677123#2" departLane="best" type="truck_truck" departSpeed="max"/>
    <trip id="truck182" depart="322.38" from="-11661792#1" to="-11661643#2" departLane="best" type="truck_truck" departSpeed="max"/>
    <trip id="truck183" depart="324.15" from="-11655844#1" to="-11661643#3" departLane="best" type="truck_truck" departSpeed="max"/>
    <trip id="truck184" depart="325.92" from="-11655844#1" to="11672071#0" departLane="best" type="truck_truck" departSpeed="max"/>
    <trip id="truck185" depart="327.70" from="-11656313" to="-11673824#7" departLane="best" type="truck_truck" departSpeed="max"/>
    <trip id="truck186" depart="329.47" from="11673824#11" to="11673475#1" departLane="best" type="truck_truck"/>
    <trip id="truck187" depart="331.24" from="1364938278" to="11673475#1" departLane="best" type="truck_truck"/>
    <trip id="truck188" depart="333.01" from="11675435#0" to="-262807627#0" departLane="best" type="truck_truck" departSpeed="max"/>
    <trip id="truck189" depart="334.78" from="11674210#0" to="38913001#1" departLane="best" type="truck_truck" departSpeed="max"/>
    <trip id="truck190" depart="336.55" from="11666162#0" to="-11664599#0" departLane="best" type="truck_truck" departSpeed="max"/>
    <trip id="truck191" depart="338.32" from="262807627#0" to="-11655766#0" departLane="best" type="truck_truck" departSpeed="max"/>
    <trip id="truck192" depart="340.10" from="-11651841#2" to="-11674210#0" departLane="best" type="truck_truck" departSpeed="max"/>
    <trip id="truck193" depart="341.87" from="-608280503#4" to="658163848#2" departLane="best" type="truck_truck"/>
    <trip id="truck194" depart="343.64" from="11675435#0" to="-421154581" departLane="best" type="truck_truck" departSpeed="max"/>
    <trip id="truck195" depart="345.41" from="11664599#1" to="-262807627#0" departLane="best" type="truck_truck"/>
    <trip id="truck196" depart="347.18" from="568983121" to="11658557#1" departLane="best" type="truck_truck" departSpeed="max"/>
    <trip id="truck197" depart="348.95" from="1369337807#1" to="-262807627#0" departLane="best" type="truck_truck"/>
    <trip id="truck198" depart="350.72" from="787115922#0" to="-11656514#0" departLane="best" type="truck_truck" departSpeed="max"/>
    <trip id="truck199" depart="352.49" from="42681430" to="-568983121" departLane="best" type="truck_truck" departSpeed="max"/>
    <trip id="truck200" depart="354.27" from="11657904#0" to="26966898" departLane="best" type="truck_truck" departSpeed="max"/>
    <trip id="truck201" depart="356.04" from="11651841#0" to="-568983121" departLane="best" type="truck_truck" departSpeed="max"/>
    <trip id="truck202" depart="357.81" from="-11673475#1" to="11664514#5" departLane="best" type="truck_truck" departSpeed="max"/>
    <trip id="truck203" depart="359.58" from="11674210#0" to="11662458#2" departLane="best" type="truck_truck" departSpeed="max"/>
    <trip id="truck204" depart="361.35" from="-11662458#2" to="26966898" departLane="best" type="truck_truck" departSpeed="max"/>
    <trip id="truck205" depart="363.12" from="11657904#0" to="-11662458#0" departLane="best" type="truck_truck" departSpeed="max"/>
    <trip id="truck206" depart="364.89" from="-11672074#1" to="-11662458#0" departLane="best" type="truck_truck"/>
    <trip id="truck207" depart="366.67" from="-11661832#0" to="1053593991#3" departLane="best" type="truck_truck"/>
    <trip id="truck208" depart="368.44" from="851965843" to="682353414" departLane="best" type="truck_truck" departSpeed="max"/>
    <trip id="truck209" depart="370.21" from="11670035#0" to="26604431" departLane="best" type="truck_truck"/>
    <trip id="truck210" depart="371.98" from="608280503#0" to="1036472421" departLane="best" type="truck_truck" departSpeed="max"/>
    <trip id="truck211" depart="373.75" from="359415372#4" to="11656313" departLane="best" type="truck_truck"/>
    <trip id="truck212" depart="375.52" from="11676498#0" to="11677123#2" departLane="best" type="truck_truck" departSpeed="max"/>
    <trip id="truck213" depart="377.29" from="60731689" to="-787115922#0" departLane="best" type="truck_truck"/>
    <trip id="truck214" depart="379.06" from="11673903#0" to="11657372" departLane="best" type="truck_truck"/>
    <trip id="truck215" depart="380.84" from="359415372#9" to="-11664626#0" departLane="best" type="truck_truck"/>
    <trip id="truck216" depart="382.61" from="206312202#1" to="682353414" departLane="best" type="truck_truck"/>
    <trip id="truck217" depart="384.38" from="11657904#0" to="-11661643#0" departLane="best" type="truck_truck" departSpeed="max"/>
    <trip id="truck218" depart="386.15" from="-658163848#2" to="38913001#1" departLane="best" type="truck_truck" departSpeed="max"/>
    <trip id="truck219" depart="387.92" from="-658163848#2" to="1364938280" departLane="best" type="truck_truck" departSpeed="max"/>
    <trip id="truck220" depart="389.69" from="-11677123#2" to="11672074#3" departLane="best" type="truck_truck" departSpeed="max"/>
    <trip id="truck221" depart="391.46" from="-11658557#1" to="-11676498#0" departLane="best" type="truck_truck" departSpeed="max"/>
    <trip id="truck222" depart="393.24" from="-682353414" to="359415372#10" departLane="best" type="truck_truck" departSpeed="max"/>
    <trip id="truck223" depart="395.01" from="262807627#0" to="-11661643#3" departLane="best" type="truck_truck" departSpeed="max"/>
    <trip id="truck224" depart="396.78" from="11656514#0" to="1369337806#1" departLane="best" type="truck_truck" departSpeed="max"/>
    <trip id="truck225" depart="398.55" from="851965843" to="-608280503#0" departLane="best" type="truck_truck" departSpeed="max"/>
    <trip id="truck226" depart="400.32" from="-11670035#1" to="11657372" departLane="best" type="truck_truck"/>
    <trip id="truck227" depart="402.09" from="-1369337800" to="-11657904#0" departLane="best" type="truck_truck"/>
    <trip id="truck228" depart="403.86" from="-11655766#2" to="-262807627#0" departLane="best" type="truck_truck"/>