<?xml version="1.0" encoding="UTF-8"?>

<!-- generated on 2026-01-31T18:16:48.956630+07:00 by Eclipse SUMO netedit 1.25.0
<neteditConfiguration xmlns:xsi="http://www.w3.org/2001/XMLSchema-instance" xsi:noNamespaceSchemaLocation="http://sumo.dlr.de/xsd/neteditConfiguration.xsd">

    <input>
        <route-files value="/home/ducanh/My_SUMO/maps/Project-Energy-Management/cologne8_final.rou.xml"/>
        <sumo-net-file value="/home/ducanh/My_SUMO/maps/Project-Energy-Management/cologne8_final.net.xml"/>
    </input>

    <output>
        <output-file value="/home/ducanh/My_SUMO/maps/Project-Energy-Management/cologne8_final.net.xml"/>
    </output>

    <processing>
        <geometry.min-radius.fix.railways value="false"/>
        <geometry.avoid-overlap value="false"/>
        <geometry.max-grade.fix value="false"/>
        <offset.disable-normalization value="true"/>
        <lefthand value="0"/>
    </processing>

    <junctions>
        <no-turnarounds value="true"/>
        <junctions.corner-detail value="0"/>
        <junctions.limit-turn-speed value="-1.00"/>
        <rectangular-lane-cut value="0"/>
    </junctions>

    <pedestrian>
        <walkingareas value="0"/>
    </pedestrian>

    <netedit>
        <ignore.additionalelements value="0"/>
        <ignore.routeelements value="0"/>
    </netedit>

    <time>
        <begin value="0"/>
        <end value="3600"/>
    </time>

</neteditConfiguration>
-->

<net version="1.20" avoidOverlap="0" xmlns:xsi="http://www.w3.org/2001/XMLSchema-instance" xsi:noNamespaceSchemaLocation="http://sumo.dlr.de/xsd/net_file.xsd">

    <location netOffset="-342498.65,-5630866.92" convBoundary="13565.01,16795.57,14657.34,18668.50" origBoundary="6.166558,50.735925,7.295276,51.840721" projParameter="+proj=utm +zone=32 +ellps=WGS84 +datum=WGS84 +units=m +no_defs"/>

    <type id="highway.living_street" priority="3" numLanes="3" speed="2.78" disallow="tram rail_urban rail rail_electric ship" oneway="1"/>
    <type id="highway.primary" priority="9" numLanes="5" speed="13.89" disallow="tram rail_urban rail rail_electric ship" oneway="1"/>
    <type id="highway.residential" priority="4" numLanes="3" speed="13.89" disallow="tram rail_urban rail rail_electric ship" oneway="1"/>
    <type id="highway.secondary" priority="7" numLanes="5" speed="13.89" disallow="tram rail_urban rail rail_electric ship" oneway="1"/>
    <type id="highway.tertiary" priority="6" numLanes="3" speed="13.89" disallow="tram rail_urban rail rail_electric ship" oneway="1"/>
    <type id="highway.unclassified" priority="5" numLanes="3" speed="13.89" disallow="tram rail_urban rail rail_electric ship" oneway="1"/>

    <edge id=":1679948677_0" function="internal">
        <lane id=":1679948677_0_0" index="0" disallow="tram rail_urban rail rail_electric rail_fast ship cable_car subway" speed="8.33" length="14.02" shape="14595.89,17244.03 14591.78,17242.69 14589.98,17240.70 14590.49,17238.06 14593.31,17234.79"/>
    </edge>
    <edge id=":1679948681_0" function="internal">
        <lane id=":1679948681_0_0" index="0" disallow="tram rail_urban rail rail_electric rail_fast ship cable_car subway" speed="13.89" length="8.04" shape="14170.97,17237.58 14170.31,17229.54"/>
        <lane id=":1679948681_0_1" index="1" disallow="tram rail_urban rail rail_electric rail_fast ship cable_car subway" speed="13.89" length="8.04" shape="14174.16,17237.30 14173.50,17229.30"/>
    </edge>
    <edge id=":1679948681_2" function="internal">
        <lane id=":1679948681_2_0" index="0" disallow="tram rail_urban rail rail_electric rail_fast ship cable_car subway" speed="13.89" length="8.49" shape="14179.89,17228.83 14180.57,17231.22 14181.78,17232.64 14183.01,17234.07 14183.72,17236.45"/>
        <lane id=":1679948681_2_1" index="1" disallow="tram rail_urban rail rail_electric rail_fast ship cable_car subway" speed="13.89" length="8.49" shape="14176.70,17229.07 14177.38,17231.47 14178.59,17232.90 14179.82,17234.34 14180.53,17236.74"/>
        <lane id=":1679948681_2_2" index="2" disallow="tram rail_urban rail rail_electric rail_fast ship cable_car subway" speed="13.89" length="8.49" shape="14176.70,17229.07 14177.35,17237.02"/>
    </edge>
    <edge id=":2340562483_0" function="internal">
        <lane id=":2340562483_0_0" index="0" disallow="tram rail_urban rail rail_electric rail_fast ship cable_car subway" speed="11.11" length="3.15" shape="14645.06,17230.40 14644.88,17229.52 14644.47,17228.99 14643.82,17228.82 14642.93,17228.99"/>
    </edge>
    <edge id=":2340562483_1" function="internal">
        <lane id=":2340562483_1_0" index="0" disallow="tram rail_urban rail rail_electric rail_fast ship cable_car subway" speed="13.89" length="14.02" shape="14645.06,17230.40 14647.24,17226.66 14649.56,17225.31 14652.03,17226.36 14654.65,17229.81"/>
    </edge>
    <edge id=":2340562483_2" function="internal">
        <lane id=":2340562483_2_0" index="0" disallow="tram rail_urban rail rail_electric rail_fast ship cable_car subway" speed="11.11" length="22.02" shape="14639.73,17219.94 14645.91,17218.70 14650.46,17219.93 14653.37,17223.64 14654.65,17229.81"/>
    </edge>
    <edge id=":2340562483_3" function="internal">
        <lane id=":2340562483_3_0" index="0" disallow="tram rail_urban rail rail_electric rail_fast ship cable_car subway" speed="8.33" length="14.02" shape="14639.73,17219.94 14643.93,17221.00 14645.86,17222.87 14645.53,17225.53 14642.93,17228.99"/>
    </edge>
    <edge id=":247379907_0" function="internal">
        <lane id=":247379907_0_0" index="0" disallow="tram rail_urban rail rail_electric rail_fast ship cable_car subway" speed="11.11" length="26.86" shape="14107.66,18422.87 14102.92,18417.91 14097.45,18414.42 14091.23,18412.41 14084.28,18411.87"/>
    </edge>
    <edge id=":247379907_1" function="internal">
        <lane id=":247379907_1_0" index="0" disallow="tram rail_urban rail rail_electric rail_fast ship cable_car subway" speed="8.33" length="38.26" shape="14107.66,18422.87 14102.53,18415.65 14096.88,18406.83 14091.62,18397.77 14087.67,18389.86"/>
        <lane id=":247379907_1_1" index="1" disallow="tram rail_urban rail rail_electric rail_fast ship cable_car subway" speed="8.33" length="38.26" shape="14110.20,18420.92 14105.13,18413.81 14099.62,18405.21 14094.50,18396.39 14090.61,18388.58"/>
    </edge>
    <edge id=":247379907_3" function="internal">
        <lane id=":247379907_3_0" index="0" disallow="tram rail_urban rail rail_electric rail_fast ship cable_car subway" speed="11.11" length="4.38" shape="14110.20,18420.92 14108.27,18416.99"/>
    </edge>
    <edge id=":247379907_18" function="internal">
        <lane id=":247379907_18_0" index="0" disallow="tram rail_urban rail rail_electric rail_fast ship cable_car subway" speed="11.11" length="22.61" shape="14108.27,18416.99 14106.82,18414.06 14107.11,18407.89 14110.89,18403.41 14117.97,18401.62"/>
    </edge>
    <edge id=":247379907_4" function="internal">
        <lane id=":247379907_4_0" index="0" disallow="tram rail_urban rail rail_electric rail_fast ship cable_car subway" speed="11.11" length="9.40" shape="14118.09,18411.22 14115.22,18411.62 14113.79,18412.72 14113.81,18414.52 14115.28,18417.02"/>
    </edge>
    <edge id=":247379907_5" function="internal">
        <lane id=":247379907_5_0" index="0" disallow="tram rail_urban rail rail_electric rail_fast ship cable_car subway" speed="13.89" length="33.86" shape="14118.09,18411.22 14084.28,18411.87"/>
        <lane id=":247379907_5_1" index="1" disallow="tram rail_urban rail rail_electric rail_fast ship cable_car subway" speed="13.89" length="33.86" shape="14118.05,18408.02 14084.19,18408.67"/>
        <lane id=":247379907_5_2" index="2" disallow="tram rail_urban rail rail_electric rail_fast ship cable_car subway" speed="13.89" length="33.86" shape="14118.01,18404.82 14084.11,18405.47"/>
    </edge>
    <edge id=":247379907_8" function="internal">
        <lane id=":247379907_8_0" index="0" disallow="tram rail_urban rail rail_electric rail_fast ship cable_car subway" speed="11.11" length="6.03" shape="14118.01,18404.82 14112.01,18404.23"/>
    </edge>
    <edge id=":247379907_19" function="internal">
        <lane id=":247379907_19_0" index="0" disallow="tram rail_urban rail rail_electric rail_fast ship cable_car subway" speed="11.11" length="27.89" shape="14112.01,18404.23 14108.71,18403.90 14101.05,18400.89 14095.01,18395.78 14090.61,18388.58"/>
    </edge>
    <edge id=":247379907_9" function="internal">
        <lane id=":247379907_9_0" index="0" disallow="tram rail_urban rail rail_electric rail_fast ship cable_car subway" speed="11.11" length="24.64" shape="14096.48,18386.03 14099.35,18390.13 14103.88,18393.04 14110.05,18394.73 14117.88,18395.22"/>
    </edge>
    <edge id=":247379907_10" function="internal">
        <lane id=":247379907_10_0" index="0" disallow="tram rail_urban rail rail_electric rail_fast ship cable_car subway" speed="8.33" length="36.70" shape="14096.48,18386.03 14100.24,18393.62 14105.09,18401.99 14110.33,18410.12 14115.28,18417.02"/>
        <lane id=":247379907_10_1" index="1" disallow="tram rail_urban rail rail_electric rail_fast ship cable_car subway" speed="8.33" length="36.70" shape="14093.54,18387.30 14097.37,18395.00 14102.35,18403.60 14107.73,18411.96 14112.74,18418.97"/>
    </edge>
    <edge id=":247379907_12" function="internal">
        <lane id=":247379907_12_0" index="0" disallow="tram rail_urban rail rail_electric rail_fast ship cable_car subway" speed="11.11" length="4.08" shape="14093.54,18387.30 14094.70,18391.22"/>
    </edge>
    <edge id=":247379907_20" function="internal">
        <lane id=":247379907_20_0" index="0" disallow="tram rail_urban rail rail_electric rail_fast ship cable_car subway" speed="11.11" length="22.06" shape="14094.70,18391.22 14095.84,18395.08 14095.03,18400.70 14091.12,18404.16 14084.11,18405.47"/>
    </edge>
    <edge id=":247379907_13" function="internal">
        <lane id=":247379907_13_0" index="0" disallow="tram rail_urban rail rail_electric rail_fast ship cable_car subway" speed="11.11" length="9.13" shape="14083.85,18395.87 14086.47,18395.43 14087.99,18394.28 14088.39,18392.42 14087.67,18389.86"/>
    </edge>
    <edge id=":247379907_14" function="internal">
        <lane id=":247379907_14_0" index="0" disallow="tram rail_urban rail rail_electric rail_fast ship cable_car subway" speed="13.89" length="34.00" shape="14083.85,18395.87 14117.88,18395.22"/>
        <lane id=":247379907_14_1" index="1" disallow="tram rail_urban rail rail_electric rail_fast ship cable_car subway" speed="13.89" length="34.00" shape="14083.93,18399.07 14117.92,18398.42"/>
        <lane id=":247379907_14_2" index="2" disallow="tram rail_urban rail rail_electric rail_fast ship cable_car subway" speed="13.89" length="34.00" shape="14084.02,18402.27 14117.97,18401.62"/>
    </edge>
    <edge id=":247379907_17" function="internal">
        <lane id=":247379907_17_0" index="0" disallow="tram rail_urban rail rail_electric rail_fast ship cable_car subway" speed="11.11" length="5.28" shape="14084.02,18402.27 14089.27,18402.88"/>
    </edge>
    <edge id=":247379907_21" function="internal">
        <lane id=":247379907_21_0" index="0" disallow="tram rail_urban rail rail_electric rail_fast ship cable_car subway" speed="11.11" length="29.19" shape="14089.27,18402.88 14091.66,18403.16 14099.00,18406.23 14106.02,18411.51 14112.74,18418.97"/>
    </edge>
    <edge id=":247379910_0" function="internal">
        <lane id=":247379910_0_0" index="0" disallow="tram rail_urban rail rail_electric rail_fast ship cable_car subway" speed="13.89" length="14.02" shape="14339.71,18668.02 14337.68,18671.84 14335.41,18673.28 14332.90,18672.32 14330.15,18668.98"/>
    </edge>
    <edge id=":247380547_0" function="internal">
        <lane id=":247380547_0_0" index="0" disallow="tram rail_urban rail rail_electric rail_fast ship cable_car subway" speed="8.33" length="14.53" shape="14051.87,17403.69 14037.30,17403.91"/>
        <lane id=":247380547_0_1" index="1" disallow="tram rail_urban rail rail_electric rail_fast ship cable_car subway" speed="8.33" length="14.53" shape="14051.77,17400.49 14037.30,17400.71"/>
    </edge>
    <edge id=":247380547_2" function="internal">
        <lane id=":247380547_2_0" index="0" disallow="tram rail_urban rail rail_electric rail_fast ship cable_car subway" speed="8.33" length="14.56" shape="14045.71,17394.69 14045.51,17398.73 14044.03,17401.61 14041.30,17403.34 14037.30,17403.91"/>
        <lane id=":247380547_2_1" index="1" disallow="tram rail_urban rail rail_electric rail_fast ship cable_car subway" speed="8.33" length="9.04" shape="14042.53,17394.99 14042.40,17397.49 14041.48,17399.28 14039.78,17400.36 14037.30,17400.71"/>
    </edge>
    <edge id=":247380550_0" function="internal">
        <lane id=":247380550_0_0" index="0" disallow="tram rail_urban rail rail_electric rail_fast ship cable_car subway" speed="8.33" length="17.69" shape="13957.54,16961.92 13961.17,16960.64 13964.43,16961.64 13967.31,16964.90 13969.80,16970.44"/>
    </edge>
    <edge id=":247380550_1" function="internal">
        <lane id=":247380550_1_0" index="0" disallow="tram rail_urban rail rail_electric rail_fast ship cable_car subway" speed="8.33" length="14.02" shape="13957.54,16961.92 13961.86,16962.03 13964.16,16963.42 13964.42,16966.09 13962.66,16970.04"/>
    </edge>
    <edge id=":247380551_0" function="internal">
        <lane id=":247380551_0_0" index="0" disallow="tram rail_urban rail rail_electric rail_fast ship cable_car subway" speed="8.33" length="9.07" shape="14032.68,17213.84 14030.29,17214.46 14028.67,17215.70 14027.81,17217.57 14027.73,17220.06"/>
    </edge>
    <edge id=":247380551_1" function="internal">
        <lane id=":247380551_1_0" index="0" disallow="tram rail_urban rail rail_electric rail_fast ship cable_car subway" speed="8.33" length="14.56" shape="14032.68,17213.84 14018.25,17215.53"/>
        <lane id=":247380551_1_1" index="1" disallow="tram rail_urban rail rail_electric rail_fast ship cable_car subway" speed="8.33" length="14.56" shape="14032.33,17210.66 14017.85,17212.35"/>
    </edge>
    <edge id=":247380551_3" function="internal">
        <lane id=":247380551_3_0" index="0" disallow="tram rail_urban rail rail_electric rail_fast ship cable_car subway" speed="8.33" length="9.48" shape="14024.94,17199.22 14025.70,17201.68 14027.07,17203.34 14029.05,17204.22 14031.64,17204.30"/>
    </edge>
    <edge id=":247380551_4" function="internal">
        <lane id=":247380551_4_0" index="0" disallow="tram rail_urban rail rail_electric rail_fast ship cable_car subway" speed="8.33" length="20.95" shape="14024.94,17199.22 14027.73,17220.06"/>
        <lane id=":247380551_4_1" index="1" disallow="tram rail_urban rail rail_electric rail_fast ship cable_car subway" speed="8.33" length="20.95" shape="14021.78,17199.73 14024.55,17220.41"/>
    </edge>
    <edge id=":247380551_6" function="internal">
        <lane id=":247380551_6_0" index="0" disallow="tram rail_urban rail rail_electric rail_fast ship cable_car subway" speed="8.33" length="14.68" shape="14021.78,17199.73 14022.25,17204.98 14021.75,17208.84 14020.29,17211.29 14017.85,17212.35"/>
    </edge>
    <edge id=":247380551_7" function="internal">
        <lane id=":247380551_7_0" index="0" disallow="tram rail_urban rail rail_electric rail_fast ship cable_car subway" speed="8.33" length="14.65" shape="14017.07,17206.00 14031.64,17204.30"/>
        <lane id=":247380551_7_1" index="1" disallow="tram rail_urban rail rail_electric rail_fast ship cable_car subway" speed="8.33" length="14.65" shape="14017.46,17209.18 14031.98,17207.48"/>
    </edge>
    <edge id=":247380551_9" function="internal">
        <lane id=":247380551_9_0" index="0" disallow="tram rail_urban rail rail_electric rail_fast ship cable_car subway" speed="8.33" length="2.47" shape="14017.46,17209.18 14019.90,17209.58"/>
    </edge>
    <edge id=":247380551_10" function="internal">
        <lane id=":247380551_10_0" index="0" disallow="tram rail_urban rail rail_electric rail_fast ship cable_car subway" speed="8.33" length="12.22" shape="14019.90,17209.58 14020.08,17209.61 14022.13,17211.63 14023.62,17215.22 14024.55,17220.41"/>
    </edge>
    <edge id=":252015689_0" function="internal">
        <lane id=":252015689_0_0" index="0" disallow="tram rail_urban rail rail_electric rail_fast ship cable_car subway" speed="2.78" length="14.02" shape="13689.04,17443.43 13685.93,17446.44 13683.33,17447.10 13681.24,17445.42 13679.66,17441.39"/>
    </edge>
    <edge id=":252016270_0" function="internal">
        <lane id=":252016270_0_0" index="0" disallow="tram rail_urban rail rail_electric rail_fast ship cable_car subway" speed="8.33" length="9.44" shape="13890.34,17142.64 13889.61,17140.26 13888.24,17138.66 13886.22,17137.85 13883.55,17137.83"/>
        <lane id=":252016270_0_1" index="1" disallow="tram rail_urban rail rail_electric rail_fast ship cable_car subway" speed="8.33" length="12.07" shape="13890.34,17142.64 13889.42,17138.87 13887.91,17136.28 13885.82,17134.88 13883.16,17134.65"/>
    </edge>
    <edge id=":252016270_2" function="internal">
        <lane id=":252016270_2_0" index="0" disallow="tram rail_urban rail rail_electric rail_fast ship cable_car subway" speed="8.33" length="14.76" shape="13890.34,17142.64 13889.70,17138.36 13889.17,17135.45 13888.49,17132.57 13887.37,17128.39"/>
        <lane id=":252016270_2_1" index="1" disallow="tram rail_urban rail rail_electric rail_fast ship cable_car subway" speed="8.33" length="14.76" shape="13893.51,17142.18 13892.85,17137.79 13892.31,17134.80 13891.61,17131.85 13890.46,17127.56"/>
    </edge>
    <edge id=":252016270_4" function="internal">
        <lane id=":252016270_4_0" index="0" disallow="tram rail_urban rail rail_electric rail_fast ship cable_car subway" speed="8.33" length="11.62" shape="13893.51,17142.18 13893.30,17138.35 13893.95,17135.51 13895.45,17133.67 13897.81,17132.82"/>
        <lane id=":252016270_4_1" index="1" disallow="tram rail_urban rail rail_electric rail_fast ship cable_car subway" speed="8.33" length="8.89" shape="13893.51,17142.18 13893.50,17139.73 13894.28,17137.89 13895.85,17136.64 13898.21,17136.00"/>
    </edge>
    <edge id=":252016271_0" function="internal">
        <lane id=":252016271_0_0" index="0" disallow="tram rail_urban rail rail_electric rail_fast ship cable_car subway" speed="11.11" length="9.01" shape="13808.99,17147.04 13806.44,17147.65 13804.57,17148.77 13803.38,17150.39 13802.85,17152.52"/>
    </edge>
    <edge id=":252016271_1" function="internal">
        <lane id=":252016271_1_0" index="0" disallow="tram rail_urban rail rail_electric rail_fast ship cable_car subway" speed="11.11" length="14.50" shape="13808.82,17143.84 13803.68,17144.05 13800.10,17143.23 13798.06,17141.38 13797.58,17138.49"/>
    </edge>
    <edge id=":252016271_2" function="internal">
        <lane id=":252016271_2_0" index="0" disallow="tram rail_urban rail rail_electric rail_fast ship cable_car subway" speed="13.89" length="13.54" shape="13803.96,17139.04 13802.85,17152.52"/>
        <lane id=":252016271_2_1" index="1" disallow="tram rail_urban rail rail_electric rail_fast ship cable_car subway" speed="13.89" length="13.54" shape="13800.77,17138.76 13799.66,17152.27"/>
    </edge>
    <edge id=":252016271_4" function="internal">
        <lane id=":252016271_4_0" index="0" disallow="tram rail_urban rail rail_electric rail_fast ship cable_car subway" speed="13.89" length="13.60" shape="13793.28,17151.79 13794.39,17138.22"/>
        <lane id=":252016271_4_1" index="1" disallow="tram rail_urban rail rail_electric rail_fast ship cable_car subway" speed="13.89" length="13.60" shape="13796.47,17152.03 13797.58,17138.49"/>
    </edge>
    <edge id=":252016273_0" function="internal">
        <lane id=":252016273_0_0" index="0" disallow="tram rail_urban rail rail_electric rail_fast ship cable_car subway" speed="8.33" length="9.02" shape="13926.07,17392.54 13923.58,17392.60 13921.77,17393.47 13920.64,17395.13 13920.18,17397.61"/>
        <lane id=":252016273_0_1" index="1" disallow="tram rail_urban rail rail_electric rail_fast ship cable_car subway" speed="8.33" length="11.88" shape="13926.07,17392.54 13922.18,17392.45 13919.38,17393.25 13917.64,17394.94 13916.98,17397.52"/>
    </edge>
    <edge id=":252016273_2" function="internal">
        <lane id=":252016273_2_0" index="0" disallow="tram rail_urban rail rail_electric rail_fast ship cable_car subway" speed="8.33" length="20.93" shape="13926.07,17392.54 13905.30,17390.33"/>
        <lane id=":252016273_2_1" index="1" disallow="tram rail_urban rail rail_electric rail_fast ship cable_car subway" speed="8.33" length="20.93" shape="13926.45,17389.36 13905.60,17387.14"/>
    </edge>
    <edge id=":252016273_4" function="internal">
        <lane id=":252016273_4_0" index="0" disallow="tram rail_urban rail rail_electric rail_fast ship cable_car subway" speed="8.33" length="13.32" shape="13926.45,17389.36 13922.36,17388.48 13919.39,17386.94 13917.55,17384.75 13916.83,17381.91"/>
    </edge>
    <edge id=":252016273_5" function="internal">
        <lane id=":252016273_5_0" index="0" disallow="tram rail_urban rail rail_electric rail_fast ship cable_car subway" speed="8.33" length="9.89" shape="13910.59,17397.35 13910.35,17394.47 13909.40,17392.34 13907.71,17390.96 13905.30,17390.33"/>
    </edge>
    <edge id=":252016273_6" function="internal">
        <lane id=":252016273_6_0" index="0" disallow="tram rail_urban rail rail_electric rail_fast ship cable_car subway" speed="8.33" length="15.81" shape="13910.59,17397.35 13911.25,17392.77 13912.37,17389.71 13913.36,17386.64 13913.63,17382.07"/>
        <lane id=":252016273_6_1" index="1" disallow="tram rail_urban rail rail_electric rail_fast ship cable_car subway" speed="8.33" length="15.81" shape="13913.78,17397.43 13914.45,17392.79 13915.57,17389.67 13916.56,17386.56 13916.83,17381.91"/>
    </edge>
    <edge id=":252016274_0" function="internal">
        <lane id=":252016274_0_0" index="0" disallow="tram rail_urban rail rail_electric rail_fast ship cable_car subway" speed="8.33" length="9.04" shape="13903.29,17235.49 13902.72,17233.06 13901.50,17231.44 13899.65,17230.65 13897.15,17230.67"/>
    </edge>
    <edge id=":252016274_1" function="internal">
        <lane id=":252016274_1_0" index="0" disallow="tram rail_urban rail rail_electric rail_fast ship cable_car subway" speed="8.33" length="20.99" shape="13903.29,17235.49 13900.87,17214.73"/>
        <lane id=":252016274_1_1" index="1" disallow="tram rail_urban rail rail_electric rail_fast ship cable_car subway" speed="8.33" length="20.99" shape="13906.48,17235.21 13904.04,17214.27"/>
    </edge>
    <edge id=":252016274_3" function="internal">
        <lane id=":252016274_3_0" index="0" disallow="tram rail_urban rail rail_electric rail_fast ship cable_car subway" speed="8.33" length="14.78" shape="13906.48,17235.21 13906.34,17229.82 13907.01,17225.88 13908.48,17223.39 13910.75,17222.35"/>
    </edge>
    <edge id=":252016274_4" function="internal">
        <lane id=":252016274_4_0" index="0" disallow="tram rail_urban rail rail_electric rail_fast ship cable_car subway" speed="8.33" length="14.55" shape="13911.51,17228.70 13897.15,17230.67"/>
        <lane id=":252016274_4_1" index="1" disallow="tram rail_urban rail rail_electric rail_fast ship cable_car subway" speed="8.33" length="14.55" shape="13911.13,17225.52 13896.66,17227.51"/>
    </edge>
    <edge id=":252016274_6" function="internal">
        <lane id=":252016274_6_0" index="0" disallow="tram rail_urban rail rail_electric rail_fast ship cable_car subway" speed="8.33" length="2.27" shape="13911.13,17225.52 13908.90,17225.10"/>
    </edge>
    <edge id=":252016274_10" function="internal">
        <lane id=":252016274_10_0" index="0" disallow="tram rail_urban rail rail_electric rail_fast ship cable_car subway" speed="8.33" length="12.27" shape="13908.90,17225.10 13908.68,17225.06 13906.68,17223.03 13905.13,17219.43 13904.04,17214.27"/>
    </edge>
    <edge id=":252016274_7" function="internal">
        <lane id=":252016274_7_0" index="0" disallow="tram rail_urban rail rail_electric rail_fast ship cable_car subway" speed="8.33" length="9.41" shape="13895.69,17221.18 13898.26,17220.44 13899.98,17219.11 13900.85,17217.21 13900.87,17214.73"/>
    </edge>
    <edge id=":252016274_8" function="internal">
        <lane id=":252016274_8_0" index="0" disallow="tram rail_urban rail rail_electric rail_fast ship cable_car subway" speed="8.33" length="14.76" shape="13895.69,17221.18 13910.37,17219.17"/>
        <lane id=":252016274_8_1" index="1" disallow="tram rail_urban rail rail_electric rail_fast ship cable_car subway" speed="8.33" length="14.76" shape="13896.18,17224.35 13910.75,17222.35"/>
    </edge>
    <edge id=":252016275_0" function="internal">
        <lane id=":252016275_0_0" index="0" disallow="tram rail_urban rail rail_electric rail_fast ship cable_car subway" speed="8.33" length="14.02" shape="13840.67,17060.41 13836.36,17060.77 13833.92,17059.64 13833.37,17057.01 13834.69,17052.89"/>
    </edge>
    <edge id=":252016277_0" function="internal">
        <lane id=":252016277_0_0" index="0" disallow="tram rail_urban rail rail_electric rail_fast ship cable_car subway" speed="8.33" length="9.14" shape="13865.76,17048.00 13864.71,17045.53 13863.24,17044.34 13861.35,17044.43 13859.04,17045.79"/>
        <lane id=":252016277_0_1" index="1" disallow="tram rail_urban rail rail_electric rail_fast ship cable_car subway" speed="8.33" length="12.67" shape="13865.76,17048.00 13864.24,17044.12 13862.29,17042.03 13859.89,17041.76 13857.05,17043.29"/>
    </edge>
    <edge id=":252016277_2" function="internal">
        <lane id=":252016277_2_0" index="0" disallow="tram rail_urban rail rail_electric rail_fast ship cable_car subway" speed="8.33" length="18.47" shape="13865.76,17048.00 13864.59,17042.05 13864.58,17037.18 13865.73,17033.38 13868.04,17030.66"/>
        <lane id=":252016277_2_1" index="1" disallow="tram rail_urban rail rail_electric rail_fast ship cable_car subway" speed="8.33" length="14.70" shape="13868.85,17047.17 13867.82,17042.21 13867.66,17038.23 13868.38,17035.23 13869.97,17033.21"/>
    </edge>
    <edge id=":252016277_4" function="internal">
        <lane id=":252016277_4_0" index="0" disallow="tram rail_urban rail rail_electric rail_fast ship cable_car subway" speed="8.33" length="16.85" shape="13853.07,17038.28 13857.24,17035.60 13860.51,17034.41 13863.80,17033.25 13868.04,17030.66"/>
        <lane id=":252016277_4_1" index="1" disallow="tram rail_urban rail rail_electric rail_fast ship cable_car subway" speed="8.33" length="16.85" shape="13855.06,17040.78 13859.21,17038.12 13862.47,17036.94 13865.74,17035.79 13869.97,17033.21"/>
    </edge>
    <edge id=":252016278_0" function="internal">
        <lane id=":252016278_0_0" index="0" disallow="tram rail_urban rail rail_electric rail_fast ship cable_car subway" speed="8.33" length="25.30" shape="13948.66,16978.85 13942.27,16981.70 13936.62,16981.73 13931.71,16978.92 13927.55,16973.29"/>
        <lane id=":252016278_0_1" index="1" disallow="tram rail_urban rail rail_electric rail_fast ship cable_car subway" speed="8.33" length="19.88" shape="13946.96,16976.15 13941.93,16978.39 13937.49,16978.40 13933.64,16976.20 13930.37,16971.78"/>
    </edge>
    <edge id=":252016278_2" function="internal">
        <lane id=":252016278_2_0" index="0" disallow="tram rail_urban rail rail_electric rail_fast ship cable_car subway" speed="8.33" length="9.04" shape="13936.00,16968.75 13937.49,16970.76 13939.24,16971.76 13941.26,16971.75 13943.55,16970.73"/>
        <lane id=":252016278_2_1" index="1" disallow="tram rail_urban rail rail_electric rail_fast ship cable_car subway" speed="8.33" length="14.46" shape="13933.19,16970.26 13935.56,16973.48 13938.37,16975.08 13941.60,16975.07 13945.25,16973.44"/>
    </edge>
    <edge id=":252016278_4" function="internal">
        <lane id=":252016278_4_0" index="0" disallow="tram rail_urban rail rail_electric rail_fast ship cable_car subway" speed="8.33" length="13.07" shape="13927.99,16985.32 13929.57,16983.36 13930.03,16980.70 13929.35,16977.34 13927.55,16973.29"/>
    </edge>
    <edge id=":252016278_5" function="internal">
        <lane id=":252016278_5_0" index="0" disallow="tram rail_urban rail rail_electric rail_fast ship cable_car subway" speed="8.33" length="21.27" shape="13927.99,16985.32 13932.60,16981.25 13935.59,16977.76 13938.67,16974.41 13943.55,16970.73"/>
        <lane id=":252016278_5_1" index="1" disallow="tram rail_urban rail rail_electric rail_fast ship cable_car subway" speed="8.33" length="21.27" shape="13929.92,16987.88 13934.49,16983.83 13937.41,16980.39 13940.41,16977.10 13945.25,16973.44"/>
    </edge>
    <edge id=":252016280_0" function="internal">
        <lane id=":252016280_0_0" index="0" disallow="tram rail_urban rail rail_electric rail_fast ship cable_car subway" speed="8.33" length="8.74" shape="13944.75,16842.59 13947.16,16843.09 13948.69,16844.24 13949.34,16846.03 13949.13,16848.48"/>
    </edge>
    <edge id=":252016281_0" function="internal">
        <lane id=":252016281_0_0" index="0" disallow="tram rail_urban rail rail_electric rail_fast ship cable_car subway" speed="11.11" length="9.03" shape="13835.15,16885.74 13832.66,16885.67 13830.78,16886.42 13829.50,16887.99 13828.81,16890.39"/>
    </edge>
    <edge id=":252016281_1" function="internal">
        <lane id=":252016281_1_0" index="0" disallow="tram rail_urban rail rail_electric rail_fast ship cable_car subway" speed="11.11" length="14.64" shape="13835.68,16882.58 13830.48,16881.35 13826.86,16879.73 13824.83,16877.71 13824.38,16875.29"/>